@<TRIPOS>MOLECULE
RhRh_cap4_8_sp
 74 81 0 0 0
SMALL
GASTEIGER

@<TRIPOS>ATOM
      1 Rh         -0.0226   -0.7913   -0.9184 Rh      1  UNL1        0.0000
      2 Rh         -0.0851    0.7153    0.9495 Rh      1  UNL1        0.0000
      3 C          -2.0633    1.2983   -1.1540 C.3     1  UNL1        0.0000
      4 C          -1.8943   -1.5555    1.2289 C.3     1  UNL1        0.0000
      5 C           1.8009    1.4773   -1.1868 C.3     1  UNL1        0.0000
      6 C           1.9801   -1.3456    1.1718 C.3     1  UNL1        0.0000
      7 O           1.4250   -0.4119    1.8580 O.3     1  UNL1        0.0000
      8 O          -1.5664   -0.4677    1.8254 O.3     1  UNL1        0.0000
      9 O          -1.6364    0.2443   -1.7534 O.3     1  UNL1        0.0000
     10 O           1.3286    0.4924   -1.8633 O.3     1  UNL1        0.0000
     11 N           1.5575   -1.7201   -0.0158 N.3     1  UNL1        0.0000
     12 N          -1.3337   -1.9740    0.1111 N.3     1  UNL1        0.0000
     13 N          -1.5503    1.7454   -0.0293 N.3     1  UNL1        0.0000
     14 N           1.3637    1.8089    0.0083 N.3     1  UNL1        0.0000
     15 C           3.2122   -1.9693    1.8026 C.3     1  UNL1        0.0000
     16 C           4.5093   -1.5834    1.0660 C.3     1  UNL1        0.0000
     17 C           4.7544   -2.3627   -0.2322 C.3     1  UNL1        0.0000
     18 C           3.6500   -2.2563   -1.2913 C.3     1  UNL1        0.0000
     19 C           2.2715   -2.7219   -0.8025 C.3     1  UNL1        0.0000
     20 C          -3.0219   -2.3586    1.8531 C.3     1  UNL1        0.0000
     21 C          -4.3197   -2.3481    0.9947 C.3     1  UNL1        0.0000
     22 C          -4.1100   -2.0673   -0.5016 C.3     1  UNL1        0.0000
     23 C          -3.1660   -3.0255   -1.2374 C.3     1  UNL1        0.0000
     24 C          -1.8107   -3.1992   -0.5200 C.3     1  UNL1        0.0000
     25 C          -3.2455    1.9884   -1.8133 C.3     1  UNL1        0.0000
     26 C          -4.5475    1.8924   -0.9943 C.3     1  UNL1        0.0000
     27 C          -4.6209    2.8489    0.2012 C.3     1  UNL1        0.0000
     28 C          -3.5012    2.6879    1.2354 C.3     1  UNL1        0.0000
     29 C          -2.0967    2.9115    0.6572 C.3     1  UNL1        0.0000
     30 C           2.9540    2.2188   -1.8390 C.3     1  UNL1        0.0000
     31 C           4.2960    1.9563   -1.1289 C.3     1  UNL1        0.0000
     32 C           4.4898    2.7508    0.1687 C.3     1  UNL1        0.0000
     33 C           3.4203    2.5363    1.2470 C.3     1  UNL1        0.0000
     34 C           1.9951    2.8716    0.7859 C.3     1  UNL1        0.0000
     35 H           3.1139   -3.0620    1.8296 H       1  UNL1        0.0000
     36 H           3.2424   -1.6144    2.8342 H       1  UNL1        0.0000
     37 H           4.4924   -0.5060    0.8634 H       1  UNL1        0.0000
     38 H           5.3568   -1.7563    1.7392 H       1  UNL1        0.0000
     39 H           5.7050   -2.0341   -0.6698 H       1  UNL1        0.0000
     40 H           4.8871   -3.4239    0.0230 H       1  UNL1        0.0000
     41 H           3.5406   -1.2273   -1.6508 H       1  UNL1        0.0000
     42 H           3.9404   -2.8672   -2.1553 H       1  UNL1        0.0000
     43 H           1.6436   -2.9444   -1.6719 H       1  UNL1        0.0000
     44 H           2.3645   -3.6665   -0.2456 H       1  UNL1        0.0000
     45 H          -3.2116   -1.9396    2.8423 H       1  UNL1        0.0000
     46 H          -2.6796   -3.3881    2.0002 H       1  UNL1        0.0000
     47 H          -4.8402   -3.3038    1.1276 H       1  UNL1        0.0000
     48 H          -4.9898   -1.5754    1.3874 H       1  UNL1        0.0000
     49 H          -3.7050   -1.0589   -0.6191 H       1  UNL1        0.0000
     50 H          -5.0853   -2.0695   -1.0021 H       1  UNL1        0.0000
     51 H          -2.9971   -2.6261   -2.2432 H       1  UNL1        0.0000
     52 H          -3.6273   -4.0143   -1.3554 H       1  UNL1        0.0000
     53 H          -1.8830   -4.0026    0.2240 H       1  UNL1        0.0000
     54 H          -1.0491   -3.5249   -1.2364 H       1  UNL1        0.0000
     55 H          -3.3753    1.5084   -2.7848 H       1  UNL1        0.0000
     56 H          -3.0039    3.0434   -1.9968 H       1  UNL1        0.0000
     57 H          -5.3898    2.1052   -1.6629 H       1  UNL1        0.0000
     58 H          -4.6792    0.8592   -0.6533 H       1  UNL1        0.0000
     59 H          -4.6004    3.8818   -0.1755 H       1  UNL1        0.0000
     60 H          -5.5915    2.7241    0.6964 H       1  UNL1        0.0000
     61 H          -3.5215    1.6875    1.6835 H       1  UNL1        0.0000
     62 H          -3.6675    3.4093    2.0453 H       1  UNL1        0.0000
     63 H          -2.0947    3.7925   -0.0026 H       1  UNL1        0.0000
     64 H          -1.4055    3.1465    1.4738 H       1  UNL1        0.0000
     65 H           2.7512    3.2971   -1.8589 H       1  UNL1        0.0000
     66 H           2.9978    1.8712   -2.8726 H       1  UNL1        0.0000
     67 H           4.3857    0.8815   -0.9315 H       1  UNL1        0.0000
     68 H           5.1102    2.2116   -1.8169 H       1  UNL1        0.0000
     69 H           4.5167    3.8207   -0.0833 H       1  UNL1        0.0000
     70 H           5.4752    2.5124    0.5873 H       1  UNL1        0.0000
     71 H           3.6679    3.1684    2.1090 H       1  UNL1        0.0000
     72 H           3.4144    1.5001    1.6024 H       1  UNL1        0.0000
     73 H           1.3656    3.0324    1.6676 H       1  UNL1        0.0000
     74 H           1.9882    3.8220    0.2311 H       1  UNL1        0.0000
@<TRIPOS>BOND
     1     1    11    1
     2     1    12    1
     3     1     2    1
     4     2     8    1
     5     2     7    1
     6     3     9    1
     7     3    13    1
     8     4     8    1
     9     4    20    1
    10     5    10    1
    11     5    14    1
    12     6    15    1
    13     6     7    1
    14     9     1    1
    15    10     1    1
    16    11    19    1
    17    11     6    1
    18    12    24    1
    19    12     4    1
    20    13    29    1
    21    13     2    1
    22    14    34    1
    23    14     2    1
    24    15    35    1
    25    15    36    1
    26    16    38    1
    27    16    15    1
    28    17    40    1
    29    17    16    1
    30    18    19    1
    31    18    17    1
    32    19    44    1
    33    20    46    1
    34    20    45    1
    35    21    47    1
    36    21    48    1
    37    21    20    1
    38    22    21    1
    39    23    24    1
    40    23    22    1
    41    24    53    1
    42    25     3    1
    43    25    26    1
    44    26    58    1
    45    26    27    1
    46    27    60    1
    47    27    28    1
    48    28    61    1
    49    28    62    1
    50    29    28    1
    51    29    64    1
    52    30     5    1
    53    30    31    1
    54    31    67    1
    55    31    32    1
    56    32    70    1
    57    32    33    1
    58    33    72    1
    59    33    71    1
    60    34    33    1
    61    34    73    1
    62    37    16    1
    63    39    17    1
    64    41    18    1
    65    42    18    1
    66    43    19    1
    67    49    22    1
    68    50    22    1
    69    51    23    1
    70    52    23    1
    71    54    24    1
    72    55    25    1
    73    56    25    1
    74    57    26    1
    75    59    27    1
    76    63    29    1
    77    65    30    1
    78    66    30    1
    79    68    31    1
    80    69    32    1
    81    74    34    1
