@<TRIPOS>MOLECULE
RhRh_cap4_7_sp
 74 81 0 0 0
SMALL
GASTEIGER

@<TRIPOS>ATOM
      1 Rh          0.0718    0.6020    1.0192 Rh      1  UNL1        0.0000
      2 Rh          0.0196   -0.8363   -0.8977 Rh      1  UNL1        0.0000
      3 C          -2.0686   -1.3852    1.1134 C.3     1  UNL1        0.0000
      4 C          -1.7196    1.4984   -1.1510 C.3     1  UNL1        0.0000
      5 C           1.8462   -1.6986    1.2477 C.3     1  UNL1        0.0000
      6 C           2.1716    1.1602   -0.9802 C.3     1  UNL1        0.0000
      7 O           1.6553    0.1975   -1.6624 O.3     1  UNL1        0.0000
      8 O          -1.2995    0.4899   -1.8263 O.3     1  UNL1        0.0000
      9 O          -1.5381   -0.4546    1.8238 O.3     1  UNL1        0.0000
     10 O           1.4276   -0.6904    1.9239 O.3     1  UNL1        0.0000
     11 N           1.6615    1.5726    0.1598 N.3     1  UNL1        0.0000
     12 N          -1.2699    1.8071    0.0462 N.3     1  UNL1        0.0000
     13 N          -1.5895   -1.7725   -0.0481 N.3     1  UNL1        0.0000
     14 N           1.3455   -2.0482    0.0824 N.3     1  UNL1        0.0000
     15 C           3.4222    1.7397   -1.6353 C.3     1  UNL1        0.0000
     16 C           4.5111    2.2376   -0.6790 C.3     1  UNL1        0.0000
     17 C           4.2439    3.6504   -0.1463 C.3     1  UNL1        0.0000
     18 C           2.7752    3.8634    0.2432 C.3     1  UNL1        0.0000
     19 C           2.1610    2.6711    0.9866 C.3     1  UNL1        0.0000
     20 C          -2.8304    2.2976   -1.8084 C.3     1  UNL1        0.0000
     21 C          -4.1909    2.0752   -1.1206 C.3     1  UNL1        0.0000
     22 C          -4.3683    2.8531    0.1893 C.3     1  UNL1        0.0000
     23 C          -3.3157    2.5830    1.2721 C.3     1  UNL1        0.0000
     24 C          -1.8757    2.8810    0.8296 C.3     1  UNL1        0.0000
     25 C          -3.3419   -1.9850    1.6826 C.3     1  UNL1        0.0000
     26 C          -4.5925   -1.5665    0.8862 C.3     1  UNL1        0.0000
     27 C          -4.7883   -2.3312   -0.4290 C.3     1  UNL1        0.0000
     28 C          -3.6276   -2.2457   -1.4282 C.3     1  UNL1        0.0000
     29 C          -2.2898   -2.7541   -0.8719 C.3     1  UNL1        0.0000
     30 C           3.0314   -2.4302    1.8491 C.3     1  UNL1        0.0000
     31 C           4.3245   -2.1533    1.0556 C.3     1  UNL1        0.0000
     32 C           4.4588   -2.9820   -0.2281 C.3     1  UNL1        0.0000
     33 C           3.3316   -2.8001   -1.2521 C.3     1  UNL1        0.0000
     34 C           1.9350   -3.1289   -0.7045 C.3     1  UNL1        0.0000
     35 H           3.1185    2.5384   -2.3245 H       1  UNL1        0.0000
     36 H           3.8052    0.9316   -2.2624 H       1  UNL1        0.0000
     37 H           4.5967    1.5317    0.1562 H       1  UNL1        0.0000
     38 H           5.4788    2.2176   -1.1919 H       1  UNL1        0.0000
     39 H           4.8868    3.8366    0.7226 H       1  UNL1        0.0000
     40 H           4.5253    4.3910   -0.9051 H       1  UNL1        0.0000
     41 H           2.6918    4.7532    0.8776 H       1  UNL1        0.0000
     42 H           2.1629    4.0600   -0.6442 H       1  UNL1        0.0000
     43 H           2.8655    2.2832    1.7367 H       1  UNL1        0.0000
     44 H           1.2934    3.0361    1.5496 H       1  UNL1        0.0000
     45 H          -2.8728    1.9684   -2.8480 H       1  UNL1        0.0000
     46 H          -2.5854    3.3671   -1.8071 H       1  UNL1        0.0000
     47 H          -4.9861    2.3745   -1.8131 H       1  UNL1        0.0000
     48 H          -4.3235    1.0008   -0.9454 H       1  UNL1        0.0000
     49 H          -5.3648    2.6417    0.5961 H       1  UNL1        0.0000
     50 H          -4.3563    3.9275   -0.0443 H       1  UNL1        0.0000
     51 H          -3.3462    1.5401    1.6064 H       1  UNL1        0.0000
     52 H          -3.5510    3.2061    2.1442 H       1  UNL1        0.0000
     53 H          -1.8341    3.8371    0.2861 H       1  UNL1        0.0000
     54 H          -1.2508    3.0127    1.7193 H       1  UNL1        0.0000
     55 H          -3.4136   -1.6332    2.7132 H       1  UNL1        0.0000
     56 H          -3.2689   -3.0795    1.7090 H       1  UNL1        0.0000
     57 H          -5.4761   -1.7256    1.5150 H       1  UNL1        0.0000
     58 H          -4.5419   -0.4880    0.6942 H       1  UNL1        0.0000
     59 H          -4.9603   -3.3903   -0.1889 H       1  UNL1        0.0000
     60 H          -5.7065   -1.9762   -0.9129 H       1  UNL1        0.0000
     61 H          -3.4717   -1.2162   -1.7694 H       1  UNL1        0.0000
     62 H          -3.8894   -2.8403   -2.3124 H       1  UNL1        0.0000
     63 H          -2.4391   -3.6955   -0.3219 H       1  UNL1        0.0000
     64 H          -1.6242   -2.9956   -1.7073 H       1  UNL1        0.0000
     65 H           2.8438   -3.5102    1.8884 H       1  UNL1        0.0000
     66 H           3.1287   -2.0720    2.8754 H       1  UNL1        0.0000
     67 H           4.3700   -1.0818    0.8209 H       1  UNL1        0.0000
     68 H           5.1844   -2.3670    1.7007 H       1  UNL1        0.0000
     69 H           4.5088   -4.0443    0.0516 H       1  UNL1        0.0000
     70 H           5.4183   -2.7472   -0.7048 H       1  UNL1        0.0000
     71 H           3.5349   -3.4525   -2.1108 H       1  UNL1        0.0000
     72 H           3.3029   -1.7710   -1.6266 H       1  UNL1        0.0000
     73 H           1.2545   -3.3144   -1.5427 H       1  UNL1        0.0000
     74 H           1.9620   -4.0643   -0.1260 H       1  UNL1        0.0000
@<TRIPOS>BOND
     1     1     9    1
     2     1    10    1
     3     2    13    1
     4     2    14    1
     5     2     1    1
     6     3    25    1
     7     3     9    1
     8     4     8    1
     9     4    12    1
    10     5    30    1
    11     5    10    1
    12     6     7    1
    13     6    11    1
    14     7     2    1
    15     8     2    1
    16    11    19    1
    17    11     1    1
    18    12    24    1
    19    12     1    1
    20    13    29    1
    21    13     3    1
    22    14    34    1
    23    14     5    1
    24    15     6    1
    25    15    16    1
    26    16    17    1
    27    16    37    1
    28    17    18    1
    29    17    39    1
    30    18    41    1
    31    18    19    1
    32    19    44    1
    33    19    43    1
    34    20    46    1
    35    20     4    1
    36    20    21    1
    37    21    48    1
    38    21    22    1
    39    22    49    1
    40    22    23    1
    41    23    51    1
    42    23    52    1
    43    24    23    1
    44    24    54    1
    45    25    56    1
    46    25    55    1
    47    26    57    1
    48    26    25    1
    49    27    59    1
    50    27    26    1
    51    28    29    1
    52    28    27    1
    53    29    63    1
    54    30    65    1
    55    30    66    1
    56    31    68    1
    57    31    30    1
    58    32    69    1
    59    32    31    1
    60    33    34    1
    61    33    32    1
    62    34    74    1
    63    35    15    1
    64    36    15    1
    65    38    16    1
    66    40    17    1
    67    42    18    1
    68    45    20    1
    69    47    21    1
    70    50    22    1
    71    53    24    1
    72    58    26    1
    73    60    27    1
    74    61    28    1
    75    62    28    1
    76    64    29    1
    77    67    31    1
    78    70    32    1
    79    71    33    1
    80    72    33    1
    81    73    34    1
