@<TRIPOS>MOLECULE
RhRh_cap4_3_sp
 74 81 0 0 0
SMALL
GASTEIGER

@<TRIPOS>ATOM
      1 Rh          0.1386   -0.6697   -0.9448 Rh      1  UNL1        0.0000
      2 Rh          0.1766    0.4998    1.1461 Rh      1  UNL1        0.0000
      3 C          -1.3662    1.8337   -0.9819 C.3     1  UNL1        0.0000
      4 C          -2.1463   -1.2667    0.8226 C.3     1  UNL1        0.0000
      5 C           2.4040    1.1497   -0.6747 C.3     1  UNL1        0.0000
      6 C           1.6562   -2.0144    1.1850 C.3     1  UNL1        0.0000
      7 O           1.3486   -1.0241    1.9409 O.3     1  UNL1        0.0000
      8 O          -1.5443   -0.5365    1.6958 O.3     1  UNL1        0.0000
      9 O          -0.9127    0.9347   -1.7782 O.3     1  UNL1        0.0000
     10 O           1.9541    0.2261   -1.4477 O.3     1  UNL1        0.0000
     11 N           1.1851   -2.1689   -0.0344 N.3     1  UNL1        0.0000
     12 N          -1.6684   -1.4622   -0.3876 N.3     1  UNL1        0.0000
     13 N          -1.0072    1.9306    0.2809 N.3     1  UNL1        0.0000
     14 N           1.8662    1.4465    0.4877 N.3     1  UNL1        0.0000
     15 C           2.6702   -2.9815    1.7671 C.3     1  UNL1        0.0000
     16 C           4.0428   -2.8519    1.0765 C.3     1  UNL1        0.0000
     17 C           4.1308   -3.5592   -0.2815 C.3     1  UNL1        0.0000
     18 C           3.1224   -3.0864   -1.3358 C.3     1  UNL1        0.0000
     19 C           1.6572   -3.2439   -0.9032 C.3     1  UNL1        0.0000
     20 C          -3.4465   -1.8604    1.3554 C.3     1  UNL1        0.0000
     21 C          -3.8831   -3.2009    0.7581 C.3     1  UNL1        0.0000
     22 C          -4.5790   -3.0588   -0.6004 C.3     1  UNL1        0.0000
     23 C          -3.8673   -2.0611   -1.5236 C.3     1  UNL1        0.0000
     24 C          -2.3383   -2.1680   -1.4805 C.3     1  UNL1        0.0000
     25 C          -2.4171    2.7537   -1.5747 C.3     1  UNL1        0.0000
     26 C          -3.8202    2.4367   -1.0190 C.3     1  UNL1        0.0000
     27 C          -4.0868    3.0186    0.3747 C.3     1  UNL1        0.0000
     28 C          -3.1207    2.5669    1.4769 C.3     1  UNL1        0.0000
     29 C          -1.6479    2.8854    1.1830 C.3     1  UNL1        0.0000
     30 C           3.5837    1.9311   -1.2231 C.3     1  UNL1        0.0000
     31 C           3.1904    3.3671   -1.6221 C.3     1  UNL1        0.0000
     32 C           3.0805    4.3371   -0.4394 C.3     1  UNL1        0.0000
     33 C           2.0661    3.9419    0.6406 C.3     1  UNL1        0.0000
     34 C           2.3430    2.5743    1.2826 C.3     1  UNL1        0.0000
     35 H           2.3095   -4.0145    1.6863 H       1  UNL1        0.0000
     36 H           2.7532   -2.7406    2.8282 H       1  UNL1        0.0000
     37 H           4.2795   -1.7864    0.9635 H       1  UNL1        0.0000
     38 H           4.8080   -3.2724    1.7392 H       1  UNL1        0.0000
     39 H           5.1467   -3.4427   -0.6780 H       1  UNL1        0.0000
     40 H           3.9877   -4.6376   -0.1200 H       1  UNL1        0.0000
     41 H           3.2820   -2.0311   -1.5844 H       1  UNL1        0.0000
     42 H           3.2824   -3.6654   -2.2542 H       1  UNL1        0.0000
     43 H           1.0149   -3.2346   -1.7908 H       1  UNL1        0.0000
     44 H           1.5030   -4.2256   -0.4304 H       1  UNL1        0.0000
     45 H          -4.2388   -1.1084    1.2383 H       1  UNL1        0.0000
     46 H          -3.2822   -1.9562    2.4313 H       1  UNL1        0.0000
     47 H          -3.0019   -3.8464    0.6630 H       1  UNL1        0.0000
     48 H          -4.5539   -3.7067    1.4610 H       1  UNL1        0.0000
     49 H          -5.6169   -2.7354   -0.4531 H       1  UNL1        0.0000
     50 H          -4.6268   -4.0413   -1.0856 H       1  UNL1        0.0000
     51 H          -4.1388   -1.0313   -1.2643 H       1  UNL1        0.0000
     52 H          -4.2016   -2.2140   -2.5559 H       1  UNL1        0.0000
     53 H          -2.0316   -3.2246   -1.4929 H       1  UNL1        0.0000
     54 H          -1.9442   -1.7223   -2.4012 H       1  UNL1        0.0000
     55 H          -2.3910    2.5999   -2.6548 H       1  UNL1        0.0000
     56 H          -2.1698    3.8047   -1.3797 H       1  UNL1        0.0000
     57 H          -4.5706    2.8334   -1.7124 H       1  UNL1        0.0000
     58 H          -3.9534    1.3473   -1.0066 H       1  UNL1        0.0000
     59 H          -4.0450    4.1151    0.3033 H       1  UNL1        0.0000
     60 H          -5.1131    2.7724    0.6733 H       1  UNL1        0.0000
     61 H          -3.1945    1.4881    1.6527 H       1  UNL1        0.0000
     62 H          -3.4063    3.0644    2.4124 H       1  UNL1        0.0000
     63 H          -1.5503    3.9127    0.8007 H       1  UNL1        0.0000
     64 H          -1.0821    2.8593    2.1204 H       1  UNL1        0.0000
     65 H           3.9396    1.3798   -2.0952 H       1  UNL1        0.0000
     66 H           4.3997    1.9599   -0.4898 H       1  UNL1        0.0000
     67 H           3.9416    3.7535   -2.3204 H       1  UNL1        0.0000
     68 H           2.2420    3.3310   -2.1725 H       1  UNL1        0.0000
     69 H           2.8315    5.3355   -0.8190 H       1  UNL1        0.0000
     70 H           4.0706    4.4267    0.0302 H       1  UNL1        0.0000
     71 H           1.0521    3.9170    0.2247 H       1  UNL1        0.0000
     72 H           2.0758    4.7085    1.4257 H       1  UNL1        0.0000
     73 H           3.4152    2.4727    1.5071 H       1  UNL1        0.0000
     74 H           1.8298    2.5174    2.2483 H       1  UNL1        0.0000
@<TRIPOS>BOND
     1     1    12    1
     2     1    11    1
     3     1     2    1
     4     2     8    1
     5     2     7    1
     6     3     9    1
     7     3    13    1
     8     4    20    1
     9     4     8    1
    10     5    10    1
    11     5    14    1
    12     6    15    1
    13     6     7    1
    14     9     1    1
    15    10     1    1
    16    11    19    1
    17    11     6    1
    18    12    24    1
    19    12     4    1
    20    13     2    1
    21    13    29    1
    22    14     2    1
    23    14    34    1
    24    15    36    1
    25    16    38    1
    26    16    15    1
    27    17    40    1
    28    17    16    1
    29    18    19    1
    30    18    17    1
    31    19    44    1
    32    20    46    1
    33    21    20    1
    34    21    48    1
    35    22    49    1
    36    22    21    1
    37    23    24    1
    38    23    51    1
    39    23    22    1
    40    25    56    1
    41    25    26    1
    42    25     3    1
    43    26    58    1
    44    26    27    1
    45    27    60    1
    46    27    28    1
    47    28    61    1
    48    28    62    1
    49    29    28    1
    50    29    64    1
    51    30     5    1
    52    30    66    1
    53    31    30    1
    54    31    32    1
    55    32    70    1
    56    32    33    1
    57    33    34    1
    58    33    72    1
    59    34    73    1
    60    34    74    1
    61    35    15    1
    62    37    16    1
    63    39    17    1
    64    41    18    1
    65    42    18    1
    66    43    19    1
    67    45    20    1
    68    47    21    1
    69    50    22    1
    70    52    23    1
    71    53    24    1
    72    54    24    1
    73    55    25    1
    74    57    26    1
    75    59    27    1
    76    63    29    1
    77    65    30    1
    78    67    31    1
    79    68    31    1
    80    69    32    1
    81    71    33    1
