@<TRIPOS>MOLECULE
RhRh_5S-MEOX4_tBuCN_1_sp
 66 73 0 0 0
SMALL
GASTEIGER

@<TRIPOS>ATOM
      1 C           1.6974   -2.1343   -1.3512 C.3     1  UNL1        0.0000
      2 C          -1.3681    1.0929    1.4453 C.3     1  UNL1        0.0000
      3 C           0.7995    1.5353   -1.5528 C.3     1  UNL1        0.0000
      4 C          -0.4768   -2.5036    1.5668 C.3     1  UNL1        0.0000
      5 O           0.6028   -1.9700    1.9238 O.3     1  UNL1        0.0000
      6 O          -0.2576    0.8917    2.0030 O.3     1  UNL1        0.0000
      7 O           0.0040    0.7329   -2.1058 O.3     1  UNL1        0.0000
      8 O           0.5115   -2.1508   -1.7533 O.3     1  UNL1        0.0000
      9 N          -1.2648   -2.1644    0.5606 N.3     1  UNL1        0.0000
     10 N          -1.7901    0.6472    0.2771 N.3     1  UNL1        0.0000
     11 N           1.3638    1.4228   -0.3614 N.3     1  UNL1        0.0000
     12 N           2.2486   -1.3524   -0.4339 N.3     1  UNL1        0.0000
     13 C          -2.2479   -3.8852    1.7695 C.3     1  UNL1        0.0000
     14 C          -2.3175   -3.1486    0.4082 C.3     1  UNL1        0.0000
     15 C          -3.6671   -2.4813    0.1863 C.2     1  UNL1        0.0000
     16 C          -5.5474   -2.3924   -1.2204 C.3     1  UNL1        0.0000
     17 C          -3.5188    1.7506    1.3683 C.3     1  UNL1        0.0000
     18 C          -3.0796    1.2236   -0.0215 C.3     1  UNL1        0.0000
     19 C          -2.9803    2.3667   -1.0257 C.2     1  UNL1        0.0000
     20 C          -4.2865    3.8800   -2.2804 C.3     1  UNL1        0.0000
     21 C           2.1046    3.3734   -1.4113 C.3     1  UNL1        0.0000
     22 C           2.1061    2.6363   -0.0521 C.3     1  UNL1        0.0000
     23 C           1.3382    3.4102    1.0193 C.2     1  UNL1        0.0000
     24 C           0.9756    3.6197    3.3287 C.3     1  UNL1        0.0000
     25 C           3.8569   -2.8274   -1.3008 C.3     1  UNL1        0.0000
     26 C           3.6126   -1.7489   -0.1981 C.3     1  UNL1        0.0000
     27 C           4.6274   -0.6222   -0.3342 C.2     1  UNL1        0.0000
     28 C           6.9618   -0.2266   -0.2967 C.3     1  UNL1        0.0000
     29 H          -2.9852   -3.4819    2.4715 H       1  UNL1        0.0000
     30 H          -2.3566   -4.9673    1.6865 H       1  UNL1        0.0000
     31 H          -2.1163   -3.8150   -0.4386 H       1  UNL1        0.0000
     32 H          -6.2043   -2.3170   -0.3514 H       1  UNL1        0.0000
     33 H          -5.3555   -1.3918   -1.6166 H       1  UNL1        0.0000
     34 H          -5.9905   -3.0242   -1.9893 H       1  UNL1        0.0000
     35 H          -4.0028    2.7278    1.3451 H       1  UNL1        0.0000
     36 H          -4.1592    1.0173    1.8656 H       1  UNL1        0.0000
     37 H          -3.7873    0.4810   -0.3907 H       1  UNL1        0.0000
     38 H          -3.8286    4.7188   -1.7517 H       1  UNL1        0.0000
     39 H          -3.7640    3.7370   -3.2290 H       1  UNL1        0.0000
     40 H          -5.3462    4.0642   -2.4558 H       1  UNL1        0.0000
     41 H           1.7533    4.4024   -1.3264 H       1  UNL1        0.0000
     42 H           3.0879    3.3373   -1.8878 H       1  UNL1        0.0000
     43 H           3.1121    2.3951    0.2920 H       1  UNL1        0.0000
     44 H           0.8405    4.7026    3.2848 H       1  UNL1        0.0000
     45 H           0.0105    3.1173    3.2561 H       1  UNL1        0.0000
     46 H           1.4857    3.3308    4.2473 H       1  UNL1        0.0000
     47 H           4.5505   -2.4838   -2.0743 H       1  UNL1        0.0000
     48 H           4.2198   -3.7715   -0.8908 H       1  UNL1        0.0000
     49 H           3.7393   -2.1755    0.8055 H       1  UNL1        0.0000
     50 H           7.8600   -0.8349   -0.1950 H       1  UNL1        0.0000
     51 H           6.8873    0.1917   -1.3024 H       1  UNL1        0.0000
     52 H           6.9805    0.5922    0.4264 H       1  UNL1        0.0000
     53 O          -4.1255   -1.5917    0.8722 O.2     1  UNL1        0.0000
     54 O          -1.9829    2.9607   -1.3526 O.2     1  UNL1        0.0000
     55 O           4.4371    0.5184   -0.6858 O.2     1  UNL1        0.0000
     56 O           0.3802    4.1170    0.7986 O.2     1  UNL1        0.0000
     57 O           1.8251    3.1712    2.2549 O.3     1  UNL1        0.0000
     58 O           5.8608   -1.1125   -0.0367 O.3     1  UNL1        0.0000
     59 O           2.5705   -3.0362   -1.8957 O.3     1  UNL1        0.0000
     60 O          -0.9297   -3.5894    2.2643 O.3     1  UNL1        0.0000
     61 O          -4.3051   -3.0186   -0.8690 O.3     1  UNL1        0.0000
     62 O          -2.2828    1.8655    2.1005 O.3     1  UNL1        0.0000
     63 O           1.1700    2.6487   -2.2334 O.3     1  UNL1        0.0000
     64 O          -4.2254    2.6881   -1.4787 O.3     1  UNL1        0.0000
     65 Rh          1.0982   -0.2184    0.8086 Rh      1  UNL1        0.0000
     66 Rh         -0.7449   -0.7357   -0.7822 Rh      1  UNL1        0.0000
@<TRIPOS>BOND
     1     1    59    1
     2     1    12    1
     3     2     6    1
     4     2    62    1
     5     3    63    1
     6     3    11    1
     7     4     5    1
     8     4    60    1
     9     7     3    1
    10     7    66    1
    11     8     1    1
    12     8    66    1
    13     9    66    1
    14     9     4    1
    15    10    66    1
    16    10     2    1
    17    11    22    1
    18    11    65    1
    19    12    26    1
    20    12    65    1
    21    13    60    1
    22    13    29    1
    23    14    31    1
    24    14     9    1
    25    14    13    1
    26    15    14    1
    27    15    53    2
    28    16    61    1
    29    16    32    1
    30    17    36    1
    31    17    62    1
    32    18    37    1
    33    18    10    1
    34    18    17    1
    35    19    18    1
    36    20    38    1
    37    20    64    1
    38    21    41    1
    39    21    22    1
    40    22    43    1
    41    22    23    1
    42    23    57    1
    43    24    46    1
    44    25    48    1
    45    25    26    1
    46    26    49    1
    47    27    26    1
    48    27    58    1
    49    28    50    1
    50    28    58    1
    51    28    52    1
    52    30    13    1
    53    33    16    1
    54    34    16    1
    55    35    17    1
    56    39    20    1
    57    40    20    1
    58    42    21    1
    59    44    24    1
    60    45    24    1
    61    47    25    1
    62    51    28    1
    63    54    19    2
    64    55    27    2
    65    56    23    2
    66    57    24    1
    67    59    25    1
    68    61    15    1
    69    63    21    1
    70    64    19    1
    71    65     5    1
    72    65     6    1
    73    66    65    1
