@<TRIPOS>MOLECULE
RhRh_cap4_14_sp
 74 81 0 0 0
SMALL
GASTEIGER

@<TRIPOS>ATOM
      1 Rh          0.3962   -0.8060   -0.8939 Rh      1  UNL1        0.0000
      2 Rh         -0.0353    0.2866    1.2022 Rh      1  UNL1        0.0000
      3 C          -2.2118    0.5132   -0.7895 C.3     1  UNL1        0.0000
      4 C          -1.1507   -2.3986    1.0517 C.3     1  UNL1        0.0000
      5 C           1.4568    1.9046   -0.7801 C.3     1  UNL1        0.0000
      6 C           2.5519   -1.0483    1.1009 C.3     1  UNL1        0.0000
      7 O           1.7919   -0.4040    1.9112 O.3     1  UNL1        0.0000
      8 O          -0.9920   -1.4309    1.8811 O.3     1  UNL1        0.0000
      9 O          -1.4274   -0.0867   -1.6111 O.3     1  UNL1        0.0000
     10 O           1.3545    0.9131   -1.5886 O.3     1  UNL1        0.0000
     11 N           2.1772   -1.4235   -0.1031 N.3     1  UNL1        0.0000
     12 N          -0.6046   -2.4254   -0.1447 N.3     1  UNL1        0.0000
     13 N          -1.8542    0.8591    0.4298 N.3     1  UNL1        0.0000
     14 N           0.9656    1.9066    0.4434 N.3     1  UNL1        0.0000
     15 C           3.9642   -1.2916    1.5987 C.3     1  UNL1        0.0000
     16 C           4.9861   -0.4074    0.8562 C.3     1  UNL1        0.0000
     17 C           5.3777   -0.9338   -0.5302 C.3     1  UNL1        0.0000
     18 C           4.2205   -1.1032   -1.5225 C.3     1  UNL1        0.0000
     19 C           3.1152   -2.0497   -1.0317 C.3     1  UNL1        0.0000
     20 C          -2.0906   -3.4954    1.5152 C.3     1  UNL1        0.0000
     21 C          -3.4291   -3.4515    0.7508 C.3     1  UNL1        0.0000
     22 C          -3.3720   -4.0847   -0.6450 C.3     1  UNL1        0.0000
     23 C          -2.3552   -3.4641   -1.6111 C.3     1  UNL1        0.0000
     24 C          -0.9089   -3.4921   -1.0957 C.3     1  UNL1        0.0000
     25 C          -3.5991    0.8096   -1.3332 C.3     1  UNL1        0.0000
     26 C          -3.9621    2.3043   -1.3798 C.3     1  UNL1        0.0000
     27 C          -4.3896    2.8850   -0.0291 C.3     1  UNL1        0.0000
     28 C          -3.3179    2.8222    1.0622 C.3     1  UNL1        0.0000
     29 C          -2.8193    1.4066    1.3826 C.3     1  UNL1        0.0000
     30 C           2.1576    3.1409   -1.3139 C.3     1  UNL1        0.0000
     31 C           1.1806    4.3236   -1.5485 C.3     1  UNL1        0.0000
     32 C          -0.0300    4.3484   -0.6033 C.3     1  UNL1        0.0000
     33 C           0.3071    4.3009    0.8916 C.3     1  UNL1        0.0000
     34 C           1.1653    3.0756    1.2943 C.3     1  UNL1        0.0000
     35 H           4.2376   -2.3483    1.4888 H       1  UNL1        0.0000
     36 H           3.9610   -1.0579    2.6647 H       1  UNL1        0.0000
     37 H           4.5775    0.6080    0.7743 H       1  UNL1        0.0000
     38 H           5.8920   -0.3297    1.4684 H       1  UNL1        0.0000
     39 H           6.1296   -0.2647   -0.9661 H       1  UNL1        0.0000
     40 H           5.8728   -1.9073   -0.4022 H       1  UNL1        0.0000
     41 H           3.7518   -0.1391   -1.7489 H       1  UNL1        0.0000
     42 H           4.6255   -1.4952   -2.4641 H       1  UNL1        0.0000
     43 H           2.5268   -2.3906   -1.8905 H       1  UNL1        0.0000
     44 H           3.5566   -2.9557   -0.5903 H       1  UNL1        0.0000
     45 H          -2.2546   -3.3322    2.5817 H       1  UNL1        0.0000
     46 H          -1.6267   -4.4821    1.3953 H       1  UNL1        0.0000
     47 H          -4.1878   -3.9773    1.3416 H       1  UNL1        0.0000
     48 H          -3.7592   -2.4068    0.6800 H       1  UNL1        0.0000
     49 H          -4.3701   -4.0412   -1.0975 H       1  UNL1        0.0000
     50 H          -3.1359   -5.1524   -0.5289 H       1  UNL1        0.0000
     51 H          -2.6062   -2.4206   -1.8305 H       1  UNL1        0.0000
     52 H          -2.3998   -4.0129   -2.5604 H       1  UNL1        0.0000
     53 H          -0.6757   -4.4778   -0.6662 H       1  UNL1        0.0000
     54 H          -0.2246   -3.3639   -1.9414 H       1  UNL1        0.0000
     55 H          -4.3444    0.2700   -0.7318 H       1  UNL1        0.0000
     56 H          -3.6239    0.3831   -2.3374 H       1  UNL1        0.0000
     57 H          -3.1099    2.8677   -1.7803 H       1  UNL1        0.0000
     58 H          -4.7836    2.4364   -2.0931 H       1  UNL1        0.0000
     59 H          -4.7006    3.9276   -0.1672 H       1  UNL1        0.0000
     60 H          -5.2803    2.3423    0.3186 H       1  UNL1        0.0000
     61 H          -3.7263    3.2590    1.9822 H       1  UNL1        0.0000
     62 H          -2.4559    3.4329    0.7753 H       1  UNL1        0.0000
     63 H          -2.3175    1.4237    2.3555 H       1  UNL1        0.0000
     64 H          -3.6763    0.7269    1.5021 H       1  UNL1        0.0000
     65 H           2.6535    2.8634   -2.2453 H       1  UNL1        0.0000
     66 H           2.9381    3.4392   -0.6059 H       1  UNL1        0.0000
     67 H           1.7394    5.2633   -1.4667 H       1  UNL1        0.0000
     68 H           0.8065    4.2709   -2.5764 H       1  UNL1        0.0000
     69 H          -0.6733    3.4930   -0.8359 H       1  UNL1        0.0000
     70 H          -0.6224    5.2477   -0.8086 H       1  UNL1        0.0000
     71 H          -0.6310    4.2894    1.4566 H       1  UNL1        0.0000
     72 H           0.8373    5.2134    1.1917 H       1  UNL1        0.0000
     73 H           2.2269    3.3526    1.3063 H       1  UNL1        0.0000
     74 H           0.9272    2.7800    2.3207 H       1  UNL1        0.0000
@<TRIPOS>BOND
     1     1    12    1
     2     1    11    1
     3     1     2    1
     4     2     8    1
     5     2     7    1
     6     3     9    1
     7     3    13    1
     8     4    20    1
     9     4     8    1
    10     5    10    1
    11     5    14    1
    12     6    15    1
    13     6     7    1
    14     9     1    1
    15    10     1    1
    16    11    19    1
    17    11     6    1
    18    12    24    1
    19    12     4    1
    20    13     2    1
    21    13    29    1
    22    14     2    1
    23    14    34    1
    24    15    36    1
    25    16    38    1
    26    16    15    1
    27    17    40    1
    28    17    16    1
    29    18    19    1
    30    18    17    1
    31    19    44    1
    32    20    45    1
    33    21    47    1
    34    21    20    1
    35    22    50    1
    36    22    21    1
    37    23    24    1
    38    23    22    1
    39    24    53    1
    40    25     3    1
    41    25    55    1
    42    26    25    1
    43    26    27    1
    44    27    60    1
    45    27    28    1
    46    28    29    1
    47    28    61    1
    48    29    64    1
    49    29    63    1
    50    30     5    1
    51    30    66    1
    52    31    67    1
    53    31    30    1
    54    31    32    1
    55    32    33    1
    56    33    72    1
    57    33    34    1
    58    33    71    1
    59    34    73    1
    60    34    74    1
    61    35    15    1
    62    37    16    1
    63    39    17    1
    64    41    18    1
    65    42    18    1
    66    43    19    1
    67    46    20    1
    68    48    21    1
    69    49    22    1
    70    51    23    1
    71    52    23    1
    72    54    24    1
    73    56    25    1
    74    57    26    1
    75    58    26    1
    76    59    27    1
    77    62    28    1
    78    65    30    1
    79    68    31    1
    80    69    32    1
    81    70    32    1
