@<TRIPOS>MOLECULE
RhRh_cap4_10_sp
 74 81 0 0 0
SMALL
GASTEIGER

@<TRIPOS>ATOM
      1 Rh          0.0312   -0.8247   -0.9129 Rh      1  UNL1        0.0000
      2 Rh         -0.0615    0.6045    1.0088 Rh      1  UNL1        0.0000
      3 C          -2.1307    1.1603   -1.0212 C.3     1  UNL1        0.0000
      4 C          -1.8200   -1.7082    1.2079 C.3     1  UNL1        0.0000
      5 C           1.7468    1.5260   -1.1382 C.3     1  UNL1        0.0000
      6 C           2.0997   -1.3574    1.1228 C.3     1  UNL1        0.0000
      7 O           1.5737   -0.4099    1.8137 O.3     1  UNL1        0.0000
      8 O          -1.3852   -0.7265    1.9125 O.3     1  UNL1        0.0000
      9 O          -1.5588    0.2459   -1.7249 O.3     1  UNL1        0.0000
     10 O           1.3810    0.4919   -1.8068 O.3     1  UNL1        0.0000
     11 N           1.6169   -1.7696   -0.0288 N.3     1  UNL1        0.0000
     12 N          -1.3297   -2.0283    0.0297 N.3     1  UNL1        0.0000
     13 N          -1.6991    1.5100    0.1712 N.3     1  UNL1        0.0000
     14 N           1.2462    1.8436    0.0360 N.3     1  UNL1        0.0000
     15 C           3.3735   -1.9462    1.7021 C.3     1  UNL1        0.0000
     16 C           4.6226   -1.5352    0.8997 C.3     1  UNL1        0.0000
     17 C           4.8194   -2.3173   -0.4051 C.3     1  UNL1        0.0000
     18 C           3.6563   -2.2498   -1.4030 C.3     1  UNL1        0.0000
     19 C           2.3226   -2.7599   -0.8376 C.3     1  UNL1        0.0000
     20 C          -3.0106   -2.4442    1.7934 C.3     1  UNL1        0.0000
     21 C          -4.3054   -2.1257    1.0186 C.3     1  UNL1        0.0000
     22 C          -4.4585   -2.9085   -0.2914 C.3     1  UNL1        0.0000
     23 C          -3.3349   -2.7082   -1.3159 C.3     1  UNL1        0.0000
     24 C          -1.9399   -3.0742   -0.7883 C.3     1  UNL1        0.0000
     25 C          -3.3378    1.7688   -1.7280 C.3     1  UNL1        0.0000
     26 C          -3.6883    3.2159   -1.3717 C.3     1  UNL1        0.0000
     27 C          -4.4660    3.3438   -0.0569 C.3     1  UNL1        0.0000
     28 C          -3.8883    2.4593    1.0563 C.3     1  UNL1        0.0000
     29 C          -2.3555    2.4413    1.0899 C.3     1  UNL1        0.0000
     30 C           2.8569    2.3447   -1.7721 C.3     1  UNL1        0.0000
     31 C           4.1966    2.1768   -1.0300 C.3     1  UNL1        0.0000
     32 C           4.3028    2.9849    0.2695 C.3     1  UNL1        0.0000
     33 C           3.2201    2.7024    1.3190 C.3     1  UNL1        0.0000
     34 C           1.7898    2.9514    0.8178 C.3     1  UNL1        0.0000
     35 H           3.3035   -3.0403    1.7444 H       1  UNL1        0.0000
     36 H           3.4438   -1.5789    2.7274 H       1  UNL1        0.0000
     37 H           4.5678   -0.4594    0.6933 H       1  UNL1        0.0000
     38 H           5.5072   -1.6828    1.5300 H       1  UNL1        0.0000
     39 H           5.7352   -1.9653   -0.8955 H       1  UNL1        0.0000
     40 H           4.9961   -3.3723   -0.1506 H       1  UNL1        0.0000
     41 H           3.4939   -1.2247   -1.7544 H       1  UNL1        0.0000
     42 H           3.9199   -2.8529   -2.2810 H       1  UNL1        0.0000
     43 H           1.6571   -3.0198   -1.6676 H       1  UNL1        0.0000
     44 H           2.4791   -3.6912   -0.2726 H       1  UNL1        0.0000
     45 H          -3.0970   -2.1183    2.8313 H       1  UNL1        0.0000
     46 H          -2.8369   -3.5272    1.7962 H       1  UNL1        0.0000
     47 H          -5.1639   -2.3500    1.6621 H       1  UNL1        0.0000
     48 H          -4.3391   -1.0465    0.8204 H       1  UNL1        0.0000
     49 H          -5.4177   -2.6453   -0.7539 H       1  UNL1        0.0000
     50 H          -4.5213   -3.9788   -0.0473 H       1  UNL1        0.0000
     51 H          -3.2936   -1.6687   -1.6594 H       1  UNL1        0.0000
     52 H          -3.5522   -3.3296   -2.1939 H       1  UNL1        0.0000
     53 H          -1.9768   -4.0277   -0.2407 H       1  UNL1        0.0000
     54 H          -1.2679   -3.2413   -1.6370 H       1  UNL1        0.0000
     55 H          -4.1993    1.1089   -1.5560 H       1  UNL1        0.0000
     56 H          -3.1038    1.6831   -2.7918 H       1  UNL1        0.0000
     57 H          -2.7615    3.7992   -1.3183 H       1  UNL1        0.0000
     58 H          -4.2745    3.6543   -2.1865 H       1  UNL1        0.0000
     59 H          -4.4601    4.3924    0.2642 H       1  UNL1        0.0000
     60 H          -5.5172    3.0760   -0.2207 H       1  UNL1        0.0000
     61 H          -4.2319    1.4241    0.9490 H       1  UNL1        0.0000
     62 H          -4.2586    2.8047    2.0280 H       1  UNL1        0.0000
     63 H          -1.9589    3.4574    0.9470 H       1  UNL1        0.0000
     64 H          -2.0456    2.1300    2.0944 H       1  UNL1        0.0000
     65 H           2.5804    3.4060   -1.8030 H       1  UNL1        0.0000
     66 H           2.9475    1.9956   -2.8021 H       1  UNL1        0.0000
     67 H           4.3530    1.1103   -0.8278 H       1  UNL1        0.0000
     68 H           5.0081    2.4857   -1.6989 H       1  UNL1        0.0000
     69 H           4.2668    4.0537    0.0139 H       1  UNL1        0.0000
     70 H           5.2898    2.8119    0.7154 H       1  UNL1        0.0000
     71 H           3.4058    3.3461    2.1880 H       1  UNL1        0.0000
     72 H           3.2687    1.6657    1.6704 H       1  UNL1        0.0000
     73 H           1.1255    3.0844    1.6783 H       1  UNL1        0.0000
     74 H           1.7430    3.8936    0.2510 H       1  UNL1        0.0000
@<TRIPOS>BOND
     1     1    11    1
     2     1    12    1
     3     1     2    1
     4     2     7    1
     5     2     8    1
     6     3     9    1
     7     3    13    1
     8     4    20    1
     9     4     8    1
    10     5    10    1
    11     5    14    1
    12     6    15    1
    13     6     7    1
    14     9     1    1
    15    10     1    1
    16    11    19    1
    17    11     6    1
    18    12    24    1
    19    12     4    1
    20    13     2    1
    21    13    29    1
    22    14    34    1
    23    14     2    1
    24    15    35    1
    25    15    36    1
    26    16    38    1
    27    16    15    1
    28    17    40    1
    29    17    16    1
    30    18    19    1
    31    18    17    1
    32    19    44    1
    33    20    46    1
    34    20    45    1
    35    21    47    1
    36    21    20    1
    37    22    50    1
    38    22    21    1
    39    23    24    1
    40    23    22    1
    41    24    53    1
    42    25    55    1
    43    25    26    1
    44    25     3    1
    45    26    57    1
    46    26    27    1
    47    27    59    1
    48    27    28    1
    49    28    29    1
    50    28    62    1
    51    29    64    1
    52    30     5    1
    53    30    31    1
    54    31    67    1
    55    31    32    1
    56    32    70    1
    57    32    33    1
    58    33    72    1
    59    33    71    1
    60    34    33    1
    61    34    73    1
    62    37    16    1
    63    39    17    1
    64    41    18    1
    65    42    18    1
    66    43    19    1
    67    48    21    1
    68    49    22    1
    69    51    23    1
    70    52    23    1
    71    54    24    1
    72    56    25    1
    73    58    26    1
    74    60    27    1
    75    61    28    1
    76    63    29    1
    77    65    30    1
    78    66    30    1
    79    68    31    1
    80    69    32    1
    81    74    34    1
