@<TRIPOS>MOLECULE
RhRh_ACyPentyl4_5_sp
 126 141 0 0 0
SMALL
GASTEIGER

@<TRIPOS>ATOM
      1 Rh         -0.6196   -0.1275   -0.6626 Rh      1  UNL1        0.0000
      2 Rh          0.3086    0.1607    1.5193 Rh      1  UNL1        0.0000
      3 C          -2.1111   -1.4174    1.4509 C.3     1  UNL1        0.0000
      4 C           1.3077   -2.1406    0.0649 C.3     1  UNL1        0.0000
      5 C           1.8027    1.4322   -0.5844 C.3     1  UNL1        0.0000
      6 C          -1.5773    2.1978    0.7548 C.3     1  UNL1        0.0000
      7 O          -2.1841   -1.1350    0.2142 O.3     1  UNL1        0.0000
      8 O          -1.1727   -1.0791    2.2374 O.3     1  UNL1        0.0000
      9 O          -1.6143    1.6485   -0.3914 O.3     1  UNL1        0.0000
     10 O          -0.9104    1.8059    1.7593 O.3     1  UNL1        0.0000
     11 O           1.6975    1.4212    0.6816 O.3     1  UNL1        0.0000
     12 O           1.0001    0.9008   -1.4101 O.3     1  UNL1        0.0000
     13 O           1.4927   -1.4880    1.1398 O.3     1  UNL1        0.0000
     14 O           0.4456   -1.8686   -0.8251 O.3     1  UNL1        0.0000
     15 N          -4.0324   -2.7999    0.9418 N.am    1  UNL1        0.0000
     16 N          -3.5950    3.3643    0.1257 N.am    1  UNL1        0.0000
     17 N           4.0812    2.1771   -0.2571 N.am    1  UNL1        0.0000
     18 N           3.5107   -2.8876   -0.6897 N.am    1  UNL1        0.0000
     19 C          -3.2589   -2.2425    2.0598 C.3     1  UNL1        0.0000
     20 C          -4.1048   -1.3714    3.0276 C.3     1  UNL1        0.0000
     21 C          -3.2822   -1.3260    4.3227 C.3     1  UNL1        0.0000
     22 C          -2.5202   -2.6744    4.3864 C.3     1  UNL1        0.0000
     23 C          -2.7137   -3.3465    3.0081 C.3     1  UNL1        0.0000
     24 C          -3.4159   -3.7058    0.0490 C.2     1  UNL1        0.0000
     25 C          -4.2757   -3.7624   -1.1609 C.ar    1  UNL1        0.0000
     26 C          -4.1443   -4.5113   -2.3202 C.ar    1  UNL1        0.0000
     27 C          -5.1067   -4.3194   -3.3188 C.ar    1  UNL1        0.0000
     28 C          -6.1566   -3.4079   -3.1461 C.ar    1  UNL1        0.0000
     29 C          -6.2791   -2.6601   -1.9689 C.ar    1  UNL1        0.0000
     30 C          -5.3191   -2.8569   -0.9884 C.ar    1  UNL1        0.0000
     31 C          -5.1627   -2.2044    0.3418 C.2     1  UNL1        0.0000
     32 C          -2.3378    3.5201    0.8763 C.3     1  UNL1        0.0000
     33 C          -2.6327    3.9802    2.3144 C.3     1  UNL1        0.0000
     34 C          -2.9042    5.4825    2.1479 C.3     1  UNL1        0.0000
     35 C          -1.9169    5.9502    1.0459 C.3     1  UNL1        0.0000
     36 C          -1.4252    4.6589    0.3472 C.3     1  UNL1        0.0000
     37 C          -4.3887    2.2274    0.3841 C.2     1  UNL1        0.0000
     38 C          -5.5001    2.2519   -0.5987 C.ar    1  UNL1        0.0000
     39 C          -6.5529    1.3684   -0.7889 C.ar    1  UNL1        0.0000
     40 C          -7.4490    1.6664   -1.8239 C.ar    1  UNL1        0.0000
     41 C          -7.2857    2.8034   -2.6251 C.ar    1  UNL1        0.0000
     42 C          -6.2156    3.6843   -2.4215 C.ar    1  UNL1        0.0000
     43 C          -5.3323    3.3826   -1.3976 C.ar    1  UNL1        0.0000
     44 C          -4.1047    4.1091   -0.9546 C.2     1  UNL1        0.0000
     45 C           2.9462    2.2584   -1.1854 C.3     1  UNL1        0.0000
     46 C           3.3576    1.7652   -2.6090 C.3     1  UNL1        0.0000
     47 C           2.8159    2.8227   -3.5826 C.3     1  UNL1        0.0000
     48 C           2.8966    4.1276   -2.7786 C.3     1  UNL1        0.0000
     49 C           2.3934    3.7095   -1.3928 C.3     1  UNL1        0.0000
     50 C           4.9839    3.1754    0.1535 C.2     1  UNL1        0.0000
     51 C           5.9403    2.4902    1.0788 C.ar    1  UNL1        0.0000
     52 C           7.0073    3.0043    1.7976 C.ar    1  UNL1        0.0000
     53 C           7.7278    2.1113    2.6026 C.ar    1  UNL1        0.0000
     54 C           7.3796    0.7567    2.6772 C.ar    1  UNL1        0.0000
     55 C           6.3024    0.2424    1.9433 C.ar    1  UNL1        0.0000
     56 C           5.6037    1.1381    1.1478 C.ar    1  UNL1        0.0000
     57 C           4.4470    0.9210    0.2506 C.2     1  UNL1        0.0000
     58 C           2.2188   -3.3768   -0.1743 C.3     1  UNL1        0.0000
     59 C           1.5658   -4.3840   -1.1559 C.3     1  UNL1        0.0000
     60 C           0.6864   -5.3145   -0.2807 C.3     1  UNL1        0.0000
     61 C           0.9523   -4.8831    1.1793 C.3     1  UNL1        0.0000
     62 C           2.3171   -4.1867    1.1348 C.3     1  UNL1        0.0000
     63 C           3.6290   -2.3210   -1.9814 C.2     1  UNL1        0.0000
     64 C           5.0423   -1.8798   -2.1161 C.ar    1  UNL1        0.0000
     65 C           5.6841   -1.2598   -3.1761 C.ar    1  UNL1        0.0000
     66 C           7.0277   -0.9081   -2.9958 C.ar    1  UNL1        0.0000
     67 C           7.6886   -1.1807   -1.7915 C.ar    1  UNL1        0.0000
     68 C           7.0260   -1.8072   -0.7284 C.ar    1  UNL1        0.0000
     69 C           5.6947   -2.1423   -0.9163 C.ar    1  UNL1        0.0000
     70 C           4.7094   -2.7306    0.0385 C.2     1  UNL1        0.0000
     71 H          -4.3446   -0.3937    2.6167 H       1  UNL1        0.0000
     72 H          -5.0463   -1.9035    3.1888 H       1  UNL1        0.0000
     73 H          -3.9293   -1.1648    5.1896 H       1  UNL1        0.0000
     74 H          -2.5734   -0.4961    4.2843 H       1  UNL1        0.0000
     75 H          -2.9041   -3.3215    5.1806 H       1  UNL1        0.0000
     76 H          -1.4602   -2.5070    4.5869 H       1  UNL1        0.0000
     77 H          -3.4846   -4.1216    3.0555 H       1  UNL1        0.0000
     78 H          -1.8095   -3.8122    2.6220 H       1  UNL1        0.0000
     79 H          -3.3224   -5.2081   -2.4427 H       1  UNL1        0.0000
     80 H          -5.0381   -4.8814   -4.2447 H       1  UNL1        0.0000
     81 H          -6.8835   -3.2788   -3.9417 H       1  UNL1        0.0000
     82 H          -7.0831   -1.9463   -1.8262 H       1  UNL1        0.0000
     83 H          -3.4504    3.4167    2.7658 H       1  UNL1        0.0000
     84 H          -1.7343    3.8063    2.9124 H       1  UNL1        0.0000
     85 H          -2.7858    6.0300    3.0866 H       1  UNL1        0.0000
     86 H          -3.9359    5.6361    1.8140 H       1  UNL1        0.0000
     87 H          -2.4094    6.6075    0.3279 H       1  UNL1        0.0000
     88 H          -1.0712    6.4951    1.4749 H       1  UNL1        0.0000
     89 H          -0.4105    4.4099    0.6741 H       1  UNL1        0.0000
     90 H          -1.4266    4.7208   -0.7387 H       1  UNL1        0.0000
     91 H          -6.0732    4.5661   -3.0368 H       1  UNL1        0.0000
     92 H           2.9925    0.7573   -2.8059 H       1  UNL1        0.0000
     93 H           4.4509    1.7434   -2.6465 H       1  UNL1        0.0000
     94 H           3.3793    2.8529   -4.5198 H       1  UNL1        0.0000
     95 H           1.7714    2.5995   -3.8277 H       1  UNL1        0.0000
     96 H           3.9345    4.4688   -2.6989 H       1  UNL1        0.0000
     97 H           2.3041    4.9410   -3.2071 H       1  UNL1        0.0000
     98 H           2.6877    4.3804   -0.5891 H       1  UNL1        0.0000
     99 H           1.3003    3.6490   -1.4082 H       1  UNL1        0.0000
    100 H           7.2649    4.0561    1.7371 H       1  UNL1        0.0000
    101 H           8.5688    2.4758    3.1839 H       1  UNL1        0.0000
    102 H           7.9543    0.0953    3.3178 H       1  UNL1        0.0000
    103 H           6.0141   -0.8029    1.9937 H       1  UNL1        0.0000
    104 H           2.3767   -4.9434   -1.6311 H       1  UNL1        0.0000
    105 H           1.0150   -3.8700   -1.9389 H       1  UNL1        0.0000
    106 H          -0.3716   -5.2276   -0.5273 H       1  UNL1        0.0000
    107 H           0.9790   -6.3583   -0.4329 H       1  UNL1        0.0000
    108 H           0.9346   -5.7170    1.8860 H       1  UNL1        0.0000
    109 H           0.1838   -4.1720    1.5023 H       1  UNL1        0.0000
    110 H           2.5368   -3.5633    1.9983 H       1  UNL1        0.0000
    111 H           3.1214   -4.9204    1.0309 H       1  UNL1        0.0000
    112 H           7.5262   -2.0132    0.2110 H       1  UNL1        0.0000
    113 O           4.9093   -3.0173    1.2023 O.2     1  UNL1        0.0000
    114 O           2.7402   -2.2183   -2.8013 O.2     1  UNL1        0.0000
    115 O           3.8926   -0.1177   -0.0495 O.2     1  UNL1        0.0000
    116 O           4.9924    4.3413   -0.1886 O.2     1  UNL1        0.0000
    117 O          -3.6526    5.1357   -1.4216 O.2     1  UNL1        0.0000
    118 O          -4.1451    1.4167    1.2564 O.2     1  UNL1        0.0000
    119 O          -5.8769   -1.3472    0.8224 O.2     1  UNL1        0.0000
    120 O          -2.3762   -4.2970    0.2580 O.2     1  UNL1        0.0000
    121 H          -6.6553    0.4837   -0.1697 H       1  UNL1        0.0000
    122 H          -8.2893    1.0044   -2.0096 H       1  UNL1        0.0000
    123 H          -7.9995    3.0028   -3.4182 H       1  UNL1        0.0000
    124 H           5.1554   -1.0517   -4.0999 H       1  UNL1        0.0000
    125 H           7.5671   -0.4166   -3.7993 H       1  UNL1        0.0000
    126 H           8.7303   -0.8966   -1.6805 H       1  UNL1        0.0000
@<TRIPOS>BOND
     1     1     9    1
     2     1     7    1
     3     1     2    1
     4     2    10    1
     5     2     8    1
     6     3    19    1
     7     3     8    1
     8     4    13    1
     9     5    11    1
    10     6    32    1
    11     6    10    1
    12     7     3    1
    13     9     6    1
    14    11     2    1
    15    12     1    1
    16    12     5    1
    17    13     2    1
    18    14     1    1
    19    14     4    1
    20    15    19    1
    21    16    37   am
    22    16    32    1
    23    17    50   am
    24    17    57   am
    25    18    58    1
    26    18    70   am
    27    19    23    1
    28    19    20    1
    29    20    72    1
    30    20    21    1
    31    21    22    1
    32    21    73    1
    33    22    76    1
    34    22    75    1
    35    23    77    1
    36    23    22    1
    37    24   120    2
    38    24    15   am
    39    25    30   ar
    40    25    24    1
    41    26    25   ar
    42    27    28   ar
    43    27    26   ar
    44    28    29   ar
    45    29    82    1
    46    29    30   ar
    47    30    31    1
    48    31   119    2
    49    31    15   am
    50    32    33    1
    51    33    83    1
    52    33    84    1
    53    34    33    1
    54    34    85    1
    55    35    88    1
    56    35    34    1
    57    36    89    1
    58    36    32    1
    59    36    35    1
    60    37   118    2
    61    38    37    1
    62    39    38   ar
    63    39   121    1
    64    40    39   ar
    65    41    42   ar
    66    41    40   ar
    67    42    43   ar
    68    43    44    1
    69    43    38   ar
    70    44    16   am
    71    45     5    1
    72    45    17    1
    73    46    45    1
    74    47    48    1
    75    47    46    1
    76    48    96    1
    77    48    49    1
    78    49    45    1
    79    49    98    1
    80    50    51    1
    81    51    56   ar
    82    51    52   ar
    83    52    53   ar
    84    53    54   ar
    85    53   101    1
    86    54   102    1
    87    55   103    1
    88    55    54   ar
    89    56    55   ar
    90    57    56    1
    91    58     4    1
    92    58    62    1
    93    59    60    1
    94    59    58    1
    95    60    61    1
    96    61   109    1
    97    61   108    1
    98    62    61    1
    99    62   110    1
   100    63    18   am
   101    64    63    1
   102    64    69   ar
   103    65    66   ar
   104    65    64   ar
   105    66    67   ar
   106    67   126    1
   107    67    68   ar
   108    68   112    1
   109    69    68   ar
   110    69    70    1
   111    70   113    2
   112    71    20    1
   113    74    21    1
   114    78    23    1
   115    79    26    1
   116    80    27    1
   117    81    28    1
   118    86    34    1
   119    87    35    1
   120    90    36    1
   121    91    42    1
   122    92    46    1
   123    93    46    1
   124    94    47    1
   125    95    47    1
   126    97    48    1
   127    99    49    1
   128   100    52    1
   129   104    59    1
   130   105    59    1
   131   106    60    1
   132   107    60    1
   133   111    62    1
   134   114    63    2
   135   115    57    2
   136   116    50    2
   137   117    44    2
   138   122    40    1
   139   123    41    1
   140   124    65    1
   141   125    66    1
