@<TRIPOS>MOLECULE
RhRh_pFPhMe2-O2C4_20kcal_14_sp
 94 101 0 0 0
SMALL
GASTEIGER

@<TRIPOS>ATOM
      1 Rh          0.7455   -0.9070   -1.3605 Rh      1  UNL1        0.0000
      2 Rh          0.3219   -0.7308    0.9819 Rh      1  UNL1        0.0000
      3 C          -1.6595    0.5513   -0.7157 C.3     1  UNL1        0.0000
      4 C           1.9255    1.4184   -0.1012 C.3     1  UNL1        0.0000
      5 C           2.7494   -2.1539    0.3140 C.3     1  UNL1        0.0000
      6 C          -0.9737   -2.9775   -0.2865 C.3     1  UNL1        0.0000
      7 O           1.8799    0.7994   -1.2105 O.3     1  UNL1        0.0000
      8 O           1.3751    1.0347    0.9819 O.3     1  UNL1        0.0000
      9 O          -0.9156    0.2342   -1.7002 O.3     1  UNL1        0.0000
     10 O          -1.4154    0.2743    0.5013 O.3     1  UNL1        0.0000
     11 O          -0.4725   -2.5733   -1.3815 O.3     1  UNL1        0.0000
     12 O          -0.7074   -2.5020    0.8657 O.3     1  UNL1        0.0000
     13 O           2.4096   -2.0257   -0.9035 O.3     1  UNL1        0.0000
     14 O           2.0768   -1.7534    1.3186 O.3     1  UNL1        0.0000
     15 F          -5.7987    2.9875    3.5208 F       1  UNL1        0.0000
     16 F          -7.0020   -1.3332   -0.0069 F       1  UNL1        0.0000
     17 F           7.7101    1.6227    0.7416 F       1  UNL1        0.0000
     18 F          -1.2866    6.6645   -1.3289 F       1  UNL1        0.0000
     19 C           2.6562    2.7689   -0.0831 C.3     1  UNL1        0.0000
     20 C           1.5897    3.8163   -0.4560 C.ar    1  UNL1        0.0000
     21 C           0.4945    4.0236    0.3982 C.ar    1  UNL1        0.0000
     22 C          -0.4742    4.9835    0.1169 C.ar    1  UNL1        0.0000
     23 C          -0.3511    5.7347   -1.0464 C.ar    1  UNL1        0.0000
     24 C           0.7055    5.5467   -1.9246 C.ar    1  UNL1        0.0000
     25 C           1.6706    4.5848   -1.6218 C.ar    1  UNL1        0.0000
     26 C          -2.9475    1.3083   -1.0853 C.3     1  UNL1        0.0000
     27 C          -3.7299    1.7253    0.1588 C.ar    1  UNL1        0.0000
     28 C          -3.1063    2.5076    1.1437 C.ar    1  UNL1        0.0000
     29 C          -3.7912    2.9367    2.2753 C.ar    1  UNL1        0.0000
     30 C          -5.1272    2.5780    2.4225 C.ar    1  UNL1        0.0000
     31 C          -5.7818    1.8106    1.4723 C.ar    1  UNL1        0.0000
     32 C          -5.0745    1.3922    0.3424 C.ar    1  UNL1        0.0000
     33 C          -2.0372   -4.0847   -0.3472 C.3     1  UNL1        0.0000
     34 C          -3.3959   -3.3552   -0.2744 C.ar    1  UNL1        0.0000
     35 C          -4.3720   -3.4958   -1.2671 C.ar    1  UNL1        0.0000
     36 C          -5.5987   -2.8334   -1.1766 C.ar    1  UNL1        0.0000
     37 C          -5.8374   -2.0206   -0.0792 C.ar    1  UNL1        0.0000
     38 C          -4.8977   -1.8569    0.9298 C.ar    1  UNL1        0.0000
     39 C          -3.6831   -2.5253    0.8224 C.ar    1  UNL1        0.0000
     40 C           4.1234   -2.7831    0.5908 C.3     1  UNL1        0.0000
     41 C           5.1029   -1.5927    0.6060 C.ar    1  UNL1        0.0000
     42 C           6.0867   -1.4230   -0.3745 C.ar    1  UNL1        0.0000
     43 C           6.9676   -0.3407   -0.3401 C.ar    1  UNL1        0.0000
     44 C           6.8568    0.5787    0.6924 C.ar    1  UNL1        0.0000
     45 C           5.8868    0.4508    1.6797 C.ar    1  UNL1        0.0000
     46 C           5.0082   -0.6278    1.6213 C.ar    1  UNL1        0.0000
     47 C          -1.8628   -4.8979   -1.6364 C.3     1  UNL1        0.0000
     48 C          -1.8856   -5.0209    0.8710 C.3     1  UNL1        0.0000
     49 C           4.1229   -3.4977    1.9565 C.3     1  UNL1        0.0000
     50 C           4.4462   -3.8066   -0.5080 C.3     1  UNL1        0.0000
     51 C           3.2070    3.0630    1.3262 C.3     1  UNL1        0.0000
     52 C           3.8284    2.7163   -1.0752 C.3     1  UNL1        0.0000
     53 C          -3.7442    0.3692   -2.0156 C.3     1  UNL1        0.0000
     54 C          -2.5409    2.5690   -1.8893 C.3     1  UNL1        0.0000
     55 H           0.3926    3.4187    1.2923 H       1  UNL1        0.0000
     56 H          -1.3215    5.1470    0.7731 H       1  UNL1        0.0000
     57 H           0.7671    6.1455   -2.8262 H       1  UNL1        0.0000
     58 H           2.4939    4.4449   -2.3109 H       1  UNL1        0.0000
     59 H          -2.0612    2.7686    1.0319 H       1  UNL1        0.0000
     60 H          -3.3087    3.5345    3.0407 H       1  UNL1        0.0000
     61 H          -6.8220    1.5406    1.6147 H       1  UNL1        0.0000
     62 H          -5.5975    0.7845   -0.3830 H       1  UNL1        0.0000
     63 H          -4.1878   -4.1203   -2.1322 H       1  UNL1        0.0000
     64 H          -6.3531   -2.9318   -1.9489 H       1  UNL1        0.0000
     65 H          -5.1070   -1.1940    1.7602 H       1  UNL1        0.0000
     66 H          -2.9351   -2.3765    1.5903 H       1  UNL1        0.0000
     67 H           6.1821   -2.1377   -1.1819 H       1  UNL1        0.0000
     68 H           7.7323   -0.2095   -1.0972 H       1  UNL1        0.0000
     69 H           5.8306    1.1861    2.4741 H       1  UNL1        0.0000
     70 H           4.2304   -0.7117    2.3711 H       1  UNL1        0.0000
     71 H          -2.6072   -5.6976   -1.6819 H       1  UNL1        0.0000
     72 H          -1.9517   -4.2730   -2.5258 H       1  UNL1        0.0000
     73 H          -0.8717   -5.3581   -1.6518 H       1  UNL1        0.0000
     74 H          -0.9156   -5.5273    0.8470 H       1  UNL1        0.0000
     75 H          -1.9592   -4.4728    1.8099 H       1  UNL1        0.0000
     76 H          -2.6731   -5.7789    0.8445 H       1  UNL1        0.0000
     77 H           5.1209   -3.8966    2.1574 H       1  UNL1        0.0000
     78 H           3.8432   -2.8287    2.7692 H       1  UNL1        0.0000
     79 H           3.4116   -4.3289    1.9489 H       1  UNL1        0.0000
     80 H           4.3957   -3.3655   -1.5033 H       1  UNL1        0.0000
     81 H           5.4430   -4.2273   -0.3482 H       1  UNL1        0.0000
     82 H           3.7231   -4.6257   -0.4718 H       1  UNL1        0.0000
     83 H           3.6933    4.0424    1.3250 H       1  UNL1        0.0000
     84 H           2.4216    3.0639    2.0811 H       1  UNL1        0.0000
     85 H           3.9441    2.3074    1.6043 H       1  UNL1        0.0000
     86 H           4.3531    3.6758   -1.0874 H       1  UNL1        0.0000
     87 H           4.5379    1.9454   -0.7640 H       1  UNL1        0.0000
     88 H           3.4956    2.4745   -2.0848 H       1  UNL1        0.0000
     89 H          -4.6468    0.8710   -2.3744 H       1  UNL1        0.0000
     90 H          -3.1296    0.1090   -2.8780 H       1  UNL1        0.0000
     91 H          -4.0340   -0.5527   -1.5094 H       1  UNL1        0.0000
     92 H          -3.4431    3.1131   -2.1819 H       1  UNL1        0.0000
     93 H          -1.9155    3.2399   -1.2983 H       1  UNL1        0.0000
     94 H          -1.9869    2.2846   -2.7860 H       1  UNL1        0.0000
@<TRIPOS>BOND
     1     1     7    1
     2     1    13    1
     3     1     2    1
     4     2    14    1
     5     3    10    1
     6     4    19    1
     7     4     8    1
     8     5    40    1
     9     5    14    1
    10     6    12    1
    11     7     4    1
    12     8     2    1
    13     9     1    1
    14     9     3    1
    15    10     2    1
    16    11     1    1
    17    11     6    1
    18    12     2    1
    19    13     5    1
    20    18    23    1
    21    19    51    1
    22    20    19    1
    23    20    21   ar
    24    21    55    1
    25    22    21   ar
    26    22    56    1
    27    23    22   ar
    28    24    25   ar
    29    24    23   ar
    30    25    20   ar
    31    26     3    1
    32    26    27    1
    33    27    32   ar
    34    27    28   ar
    35    28    29   ar
    36    29    30   ar
    37    29    60    1
    38    30    15    1
    39    31    61    1
    40    31    30   ar
    41    32    31   ar
    42    33     6    1
    43    33    34    1
    44    33    48    1
    45    34    39   ar
    46    35    36   ar
    47    35    34   ar
    48    36    37   ar
    49    37    16    1
    50    37    38   ar
    51    38    65    1
    52    39    38   ar
    53    39    66    1
    54    40    41    1
    55    40    49    1
    56    41    46   ar
    57    42    43   ar
    58    42    41   ar
    59    43    44   ar
    60    44    17    1
    61    44    45   ar
    62    45    69    1
    63    46    45   ar
    64    46    70    1
    65    47    33    1
    66    48    75    1
    67    49    77    1
    68    49    78    1
    69    50    82    1
    70    50    81    1
    71    50    40    1
    72    51    85    1
    73    51    84    1
    74    52    87    1
    75    52    19    1
    76    53    91    1
    77    53    26    1
    78    54    93    1
    79    54    26    1
    80    57    24    1
    81    58    25    1
    82    59    28    1
    83    62    32    1
    84    63    35    1
    85    64    36    1
    86    67    42    1
    87    68    43    1
    88    71    47    1
    89    72    47    1
    90    73    47    1
    91    74    48    1
    92    76    48    1
    93    79    49    1
    94    80    50    1
    95    83    51    1
    96    86    52    1
    97    88    52    1
    98    89    53    1
    99    90    53    1
   100    92    54    1
   101    94    54    1
