@<TRIPOS>MOLECULE
RhRh_cis-Cy-fused-Hback-S-PTV4_33_sp
 146 157 0 0 0
SMALL
GASTEIGER

@<TRIPOS>ATOM
      1 Rh         -0.0105    0.1203    0.2788 Rh      1  UNL1        0.0000
      2 Rh         -0.0734    0.2005   -2.1119 Rh      1  UNL1        0.0000
      3 C           0.9109   -2.2736   -1.0324 C.3     1  UNL1        0.0000
      4 C          -0.9375    2.6163   -0.8089 C.3     1  UNL1        0.0000
      5 C           2.4019    1.1009   -0.9468 C.3     1  UNL1        0.0000
      6 C          -2.4426   -0.8841   -0.8752 C.3     1  UNL1        0.0000
      7 O          -1.8886   -0.6736    0.2512 O.3     1  UNL1        0.0000
      8 O          -1.9452   -0.6441   -2.0141 O.3     1  UNL1        0.0000
      9 O           0.7337   -1.7717    0.1244 O.3     1  UNL1        0.0000
     10 O           0.7411   -1.6890   -2.1411 O.3     1  UNL1        0.0000
     11 O           1.8830    0.8733    0.1940 O.3     1  UNL1        0.0000
     12 O           1.8238    0.9995   -2.0669 O.3     1  UNL1        0.0000
     13 O          -0.7389    2.0290    0.3027 O.3     1  UNL1        0.0000
     14 O          -0.8692    2.0947   -1.9598 O.3     1  UNL1        0.0000
     15 N          -4.5780   -0.8249    0.2402 N.am    1  UNL1        0.0000
     16 N           0.6460   -4.4204    0.0160 N.am    1  UNL1        0.0000
     17 N           4.5415    0.6321    0.0413 N.am    1  UNL1        0.0000
     18 N          -0.3850    4.6855    0.2921 N.am    1  UNL1        0.0000
     19 C          -5.2695   -1.4958    1.2443 C.2     1  UNL1        0.0000
     20 C          -4.5793    0.5598    0.3998 C.2     1  UNL1        0.0000
     21 C          -0.7429   -4.3426    0.1363 C.2     1  UNL1        0.0000
     22 C           1.2534   -4.8276    1.2140 C.2     1  UNL1        0.0000
     23 C           5.3171    1.1027    1.1048 C.2     1  UNL1        0.0000
     24 C           4.3008   -0.7425    0.1238 C.2     1  UNL1        0.0000
     25 C           0.9963    4.4874    0.2818 C.2     1  UNL1        0.0000
     26 C          -0.8420    5.1495    1.5375 C.2     1  UNL1        0.0000
     27 C          -3.8145   -1.5423   -0.7801 C.3     1  UNL1        0.0000
     28 C          -4.6109   -1.7626   -2.0813 C.3     1  UNL1        0.0000
     29 C          -4.9826   -0.4728   -2.8200 C.3     1  UNL1        0.0000
     30 C          -3.8927   -2.7639   -2.9975 C.3     1  UNL1        0.0000
     31 C           1.4095   -3.7155   -1.0172 C.3     1  UNL1        0.0000
     32 C           1.4922   -4.4282   -2.3762 C.3     1  UNL1        0.0000
     33 C           0.1474   -4.6487   -3.0772 C.3     1  UNL1        0.0000
     34 C           2.2515   -5.7501   -2.2078 C.3     1  UNL1        0.0000
     35 C           3.8612    1.5442   -0.8817 C.3     1  UNL1        0.0000
     36 C           4.6168    1.7563   -2.2067 C.3     1  UNL1        0.0000
     37 C           4.7561    0.4946   -3.0649 C.3     1  UNL1        0.0000
     38 C           4.0063    2.9236   -2.9958 C.3     1  UNL1        0.0000
     39 C          -1.3078    4.0940   -0.6816 C.3     1  UNL1        0.0000
     40 C          -1.4522    4.8761   -1.9979 C.3     1  UNL1        0.0000
     41 C          -2.0921    6.2402   -1.7111 C.3     1  UNL1        0.0000
     42 C          -0.1544    5.0350   -2.7977 C.3     1  UNL1        0.0000
     43 C           0.2574    3.8378    3.2999 C.3     1  UNL1        0.0000
     44 C           0.3516    5.1539    2.4803 C.3     1  UNL1        0.0000
     45 C           1.5630    5.1655    1.5221 C.3     1  UNL1        0.0000
     46 C           2.8665    4.5529    2.0406 C.3     1  UNL1        0.0000
     47 C           2.6471    3.2380    2.7931 C.3     1  UNL1        0.0000
     48 C           1.6029    3.4209    3.8993 C.3     1  UNL1        0.0000
     49 C           7.2752   -0.4268    1.2711 C.3     1  UNL1        0.0000
     50 C           5.3033   -2.6654    1.5217 C.3     1  UNL1        0.0000
     51 C           6.6894   -2.8493    0.8983 C.3     1  UNL1        0.0000
     52 C           7.6981   -1.8771    1.5219 C.3     1  UNL1        0.0000
     53 C           4.8315   -1.2126    1.4700 C.3     1  UNL1        0.0000
     54 C           5.8626   -0.1197    1.8290 C.3     1  UNL1        0.0000
     55 C          -2.2718   -3.2636    2.7907 C.3     1  UNL1        0.0000
     56 C          -2.4376   -4.5897    2.0445 C.3     1  UNL1        0.0000
     57 C           0.1964   -3.6488    3.0911 C.3     1  UNL1        0.0000
     58 C          -1.1267   -3.3586    3.8047 C.3     1  UNL1        0.0000
     59 C          -1.1331   -5.0786    1.4097 C.3     1  UNL1        0.0000
     60 C           0.1534   -4.9594    2.2574 C.3     1  UNL1        0.0000
     61 C          -7.9374   -0.0477    0.6346 C.3     1  UNL1        0.0000
     62 C          -7.4735   -0.5570    2.0047 C.3     1  UNL1        0.0000
     63 C          -6.4616    1.9443    1.3600 C.3     1  UNL1        0.0000
     64 C          -7.5181    1.4251    0.3687 C.3     1  UNL1        0.0000
     65 C          -5.3793    0.8966    1.6517 C.3     1  UNL1        0.0000
     66 C          -5.9403   -0.4606    2.1398 C.3     1  UNL1        0.0000
     67 H          -3.6128   -2.5267   -0.3462 H       1  UNL1        0.0000
     68 H          -5.5849   -0.7142   -3.7017 H       1  UNL1        0.0000
     69 H          -4.0882    0.0614   -3.1462 H       1  UNL1        0.0000
     70 H          -5.5655    0.2041   -2.1905 H       1  UNL1        0.0000
     71 H          -3.5985   -3.6642   -2.4505 H       1  UNL1        0.0000
     72 H          -2.9899   -2.3233   -3.4245 H       1  UNL1        0.0000
     73 H          -4.5550   -3.0587   -3.8173 H       1  UNL1        0.0000
     74 H           2.4252   -3.6453   -0.6143 H       1  UNL1        0.0000
     75 H          -0.4730   -5.3651   -2.5311 H       1  UNL1        0.0000
     76 H           0.3215   -5.0561   -4.0784 H       1  UNL1        0.0000
     77 H          -0.4151   -3.7196   -3.1698 H       1  UNL1        0.0000
     78 H           1.6880   -6.4423   -1.5726 H       1  UNL1        0.0000
     79 H           3.2313   -5.5984   -1.7448 H       1  UNL1        0.0000
     80 H           2.3994   -6.2337   -3.1778 H       1  UNL1        0.0000
     81 H           3.8365    2.5040   -0.3564 H       1  UNL1        0.0000
     82 H           5.2495   -0.3143   -2.5213 H       1  UNL1        0.0000
     83 H           5.3532    0.7197   -3.9546 H       1  UNL1        0.0000
     84 H           3.7781    0.1316   -3.3866 H       1  UNL1        0.0000
     85 H           3.8813    3.8096   -2.3661 H       1  UNL1        0.0000
     86 H           3.0244    2.6555   -3.3901 H       1  UNL1        0.0000
     87 H           4.6570    3.1867   -3.8354 H       1  UNL1        0.0000
     88 H          -2.2795    4.1050   -0.1748 H       1  UNL1        0.0000
     89 H          -1.4292    6.8574   -1.0951 H       1  UNL1        0.0000
     90 H          -3.0414    6.1398   -1.1764 H       1  UNL1        0.0000
     91 H          -2.2771    6.7796   -2.6447 H       1  UNL1        0.0000
     92 H           0.3299    4.0750   -2.9756 H       1  UNL1        0.0000
     93 H           0.5571    5.6800   -2.2738 H       1  UNL1        0.0000
     94 H          -0.3767    5.5026   -3.7624 H       1  UNL1        0.0000
     95 H          -5.5400   -2.2394   -1.7391 H       1  UNL1        0.0000
     96 H           2.0944   -3.7572   -3.0001 H       1  UNL1        0.0000
     97 H           5.6225    2.0631   -1.8876 H       1  UNL1        0.0000
     98 H          -2.1509    4.2815   -2.5985 H       1  UNL1        0.0000
     99 H           0.3235    6.0191    3.1464 H       1  UNL1        0.0000
    100 H           1.9488    4.1792    4.6156 H       1  UNL1        0.0000
    101 H          -0.0865    3.0369    2.6334 H       1  UNL1        0.0000
    102 H           3.5535    4.4055    1.2029 H       1  UNL1        0.0000
    103 H           3.3394    5.2772    2.7149 H       1  UNL1        0.0000
    104 H           3.6026    2.8976    3.2026 H       1  UNL1        0.0000
    105 H           2.3089    2.4654    2.0916 H       1  UNL1        0.0000
    106 H           1.4716    2.4905    4.4640 H       1  UNL1        0.0000
    107 H          -0.5117    3.9637    4.0675 H       1  UNL1        0.0000
    108 H           1.7544    6.2041    1.2176 H       1  UNL1        0.0000
    109 H           8.6990   -2.0398    1.1074 H       1  UNL1        0.0000
    110 H           7.9868    0.2841    1.7010 H       1  UNL1        0.0000
    111 H           5.3419   -2.9742    2.5733 H       1  UNL1        0.0000
    112 H           4.5558   -3.3018    1.0400 H       1  UNL1        0.0000
    113 H           6.6344   -2.6712   -0.1843 H       1  UNL1        0.0000
    114 H           7.0192   -3.8850    1.0305 H       1  UNL1        0.0000
    115 H           7.7683   -2.0646    2.6023 H       1  UNL1        0.0000
    116 H           7.2736   -0.2516    0.1870 H       1  UNL1        0.0000
    117 H           3.9638   -1.0982    2.1359 H       1  UNL1        0.0000
    118 H           5.9169    0.0739    2.9027 H       1  UNL1        0.0000
    119 H          -2.7839   -5.3563    2.7483 H       1  UNL1        0.0000
    120 H          -3.2040   -4.4989    1.2703 H       1  UNL1        0.0000
    121 H          -1.0319   -2.4237    4.3692 H       1  UNL1        0.0000
    122 H          -3.2153   -3.0117    3.2847 H       1  UNL1        0.0000
    123 H           0.4126   -2.8140    2.4136 H       1  UNL1        0.0000
    124 H           1.0336   -3.7141    3.7923 H       1  UNL1        0.0000
    125 H          -1.3435   -4.1494    4.5363 H       1  UNL1        0.0000
    126 H          -2.0638   -2.4595    2.0739 H       1  UNL1        0.0000
    127 H          -1.2544   -6.1288    1.1093 H       1  UNL1        0.0000
    128 H           0.3232   -5.8249    2.9018 H       1  UNL1        0.0000
    129 H          -7.9373    0.0307    2.8047 H       1  UNL1        0.0000
    130 H          -7.7742   -1.5982    2.1542 H       1  UNL1        0.0000
    131 H          -7.1239    1.5131   -0.6492 H       1  UNL1        0.0000
    132 H          -9.0231   -0.1549    0.5519 H       1  UNL1        0.0000
    133 H          -5.9859    2.8472    0.9678 H       1  UNL1        0.0000
    134 H          -6.9341    2.2192    2.3092 H       1  UNL1        0.0000
    135 H          -8.3919    2.0827    0.4137 H       1  UNL1        0.0000
    136 H          -7.5130   -0.6977   -0.1398 H       1  UNL1        0.0000
    137 H          -4.6610    1.3056    2.3710 H       1  UNL1        0.0000
    138 H          -5.6495   -0.6813    3.1710 H       1  UNL1        0.0000
    139 O           5.5328    2.2767    1.3314 O.2     1  UNL1        0.0000
    140 O           3.7140   -1.3952   -0.7172 O.2     1  UNL1        0.0000
    141 O          -1.4771   -3.7823   -0.6551 O.2     1  UNL1        0.0000
    142 O           2.4525   -4.9295    1.3727 O.2     1  UNL1        0.0000
    143 O          -4.0236    1.3419   -0.3465 O.2     1  UNL1        0.0000
    144 O          -5.3319   -2.7062    1.3433 O.2     1  UNL1        0.0000
    145 O           1.6068    3.8885   -0.5828 O.2     1  UNL1        0.0000
    146 O          -2.0041    5.3828    1.7924 O.2     1  UNL1        0.0000
@<TRIPOS>BOND
     1     1    13    1
     2     2    12    1
     3     2     8    1
     4     2    14    1
     5     2     1    1
     6     3    31    1
     7     3     9    1
     8     4    39    1
     9     4    13    1
    10     5    35    1
    11     5    11    1
    12     6    27    1
    13     6     7    1
    14     7     1    1
    15     8     6    1
    16     9     1    1
    17    10     2    1
    18    10     3    1
    19    11     1    1
    20    12     5    1
    21    14     4    1
    22    15    20   am
    23    15    19   am
    24    16    21   am
    25    16    22   am
    26    17    24   am
    27    17    23   am
    28    18    26   am
    29    19   144    2
    30    19    66    1
    31    20    65    1
    32    21    59    1
    33    22   142    2
    34    22    60    1
    35    23   139    2
    36    23    54    1
    37    24    53    1
    38    25    18   am
    39    25    45    1
    40    26   146    2
    41    26    44    1
    42    27    67    1
    43    27    15    1
    44    28    95    1
    45    28    27    1
    46    29    70    1
    47    29    28    1
    48    30    71    1
    49    30    28    1
    50    31    74    1
    51    31    16    1
    52    32    34    1
    53    32    31    1
    54    33    75    1
    55    33    32    1
    56    34    79    1
    57    34    78    1
    58    35    81    1
    59    35    17    1
    60    36    97    1
    61    36    35    1
    62    37    82    1
    63    37    36    1
    64    38    85    1
    65    38    36    1
    66    39    88    1
    67    39    18    1
    68    40    41    1
    69    40    39    1
    70    41    90    1
    71    41    89    1
    72    42    93    1
    73    42    40    1
    74    43    48    1
    75    43   107    1
    76    44    99    1
    77    44    43    1
    78    45   108    1
    79    45    46    1
    80    45    44    1
    81    46   103    1
    82    46    47    1
    83    47   104    1
    84    47    48    1
    85    48   106    1
    86    48   100    1
    87    49    52    1
    88    49   110    1
    89    49    54    1
    90    50   111    1
    91    51   114    1
    92    51    50    1
    93    51    52    1
    94    52   115    1
    95    53    50    1
    96    53    54    1
    97    53   117    1
    98    54   118    1
    99    55   122    1
   100    55    58    1
   101    56   119    1
   102    56    55    1
   103    57   124    1
   104    57    58    1
   105    58   121    1
   106    58   125    1
   107    59   127    1
   108    59    56    1
   109    59    60    1
   110    60   128    1
   111    60    57    1
   112    61    62    1
   113    62    66    1
   114    62   130    1
   115    62   129    1
   116    63    65    1
   117    63   134    1
   118    64   135    1
   119    64    61    1
   120    64    63    1
   121    65    66    1
   122    65   137    1
   123    66   138    1
   124    68    29    1
   125    69    29    1
   126    72    30    1
   127    73    30    1
   128    76    33    1
   129    77    33    1
   130    80    34    1
   131    83    37    1
   132    84    37    1
   133    86    38    1
   134    87    38    1
   135    91    41    1
   136    92    42    1
   137    94    42    1
   138    96    32    1
   139    98    40    1
   140   101    43    1
   141   102    46    1
   142   105    47    1
   143   109    52    1
   144   112    50    1
   145   113    51    1
   146   116    49    1
   147   120    56    1
   148   123    57    1
   149   126    55    1
   150   131    64    1
   151   132    61    1
   152   133    63    1
   153   136    61    1
   154   140    24    2
   155   141    21    2
   156   143    20    2
   157   145    25    2
