@<TRIPOS>MOLECULE
RhRh_MeMePh-O2C4_C4ax_sp
 94 101 0 0 0
SMALL
GASTEIGER

@<TRIPOS>ATOM
      1 Rh         -0.1912   -0.1699    1.1679 Rh      1  UNL1        0.0000
      2 Rh          0.0849   -0.3385   -1.1929 Rh      1  UNL1        0.0000
      3 C          -1.9250    1.5580   -0.3614 C.3     1  UNL1        0.0000
      4 C          -1.9073   -2.1216   -0.1027 C.3     1  UNL1        0.0000
      5 C           1.8757   -2.0177    0.3550 C.3     1  UNL1        0.0000
      6 C           1.7777    1.6374    0.0617 C.3     1  UNL1        0.0000
      7 O           1.3533    1.1921    1.1754 O.3     1  UNL1        0.0000
      8 O           1.3584    1.2657   -1.0825 O.3     1  UNL1        0.0000
      9 O           1.1921   -1.6783    1.3739 O.3     1  UNL1        0.0000
     10 O           1.6705   -1.6132   -0.8353 O.3     1  UNL1        0.0000
     11 O          -1.7142   -1.5448    1.0133 O.3     1  UNL1        0.0000
     12 O          -1.2346   -1.9176   -1.1657 O.3     1  UNL1        0.0000
     13 O          -1.5329    1.3396    0.8289 O.3     1  UNL1        0.0000
     14 O          -1.4977    0.9588   -1.4009 O.3     1  UNL1        0.0000
     15 C           2.8469    2.7328    0.0789 C.3     1  UNL1        0.0000
     16 C           4.1266    2.2659   -0.6387 C.ar    1  UNL1        0.0000
     17 C           5.2007    3.1623   -0.7354 C.ar    1  UNL1        0.0000
     18 C           6.3903    2.8005   -1.3637 C.ar    1  UNL1        0.0000
     19 C           6.5315    1.5269   -1.9141 C.ar    1  UNL1        0.0000
     20 C           5.4740    0.6260   -1.8201 C.ar    1  UNL1        0.0000
     21 C           4.2851    0.9875   -1.1866 C.ar    1  UNL1        0.0000
     22 C           3.0717   -2.9496    0.5889 C.3     1  UNL1        0.0000
     23 C           4.2993   -2.0450    0.8176 C.ar    1  UNL1        0.0000
     24 C           5.5274   -2.3020    0.1994 C.ar    1  UNL1        0.0000
     25 C           6.6424   -1.5053    0.4646 C.ar    1  UNL1        0.0000
     26 C           6.5480   -0.4312    1.3455 C.ar    1  UNL1        0.0000
     27 C           5.3280   -0.1636    1.9645 C.ar    1  UNL1        0.0000
     28 C           4.2162   -0.9624    1.7067 C.ar    1  UNL1        0.0000
     29 C          -3.0823   -3.1056   -0.1925 C.3     1  UNL1        0.0000
     30 C          -4.2949   -2.2759   -0.6613 C.ar    1  UNL1        0.0000
     31 C          -5.5011   -2.2571    0.0479 C.ar    1  UNL1        0.0000
     32 C          -6.5972   -1.5310   -0.4228 C.ar    1  UNL1        0.0000
     33 C          -6.5052   -0.8033   -1.6067 C.ar    1  UNL1        0.0000
     34 C          -5.3059   -0.8101   -2.3198 C.ar    1  UNL1        0.0000
     35 C          -4.2122   -1.5346   -1.8507 C.ar    1  UNL1        0.0000
     36 C          -2.9378    2.6932   -0.5494 C.3     1  UNL1        0.0000
     37 C          -4.0230    2.5840    0.5245 C.ar    1  UNL1        0.0000
     38 C          -4.6531    1.3487    0.7333 C.ar    1  UNL1        0.0000
     39 C          -5.6738    1.2169    1.6695 C.ar    1  UNL1        0.0000
     40 C          -6.0940    2.3222    2.4119 C.ar    1  UNL1        0.0000
     41 C          -5.4801    3.5556    2.2078 C.ar    1  UNL1        0.0000
     42 C          -4.4511    3.6838    1.2720 C.ar    1  UNL1        0.0000
     43 C          -2.7768   -4.1985   -1.2382 C.3     1  UNL1        0.0000
     44 C          -3.2971   -3.7607    1.1797 C.3     1  UNL1        0.0000
     45 C          -2.0999    3.9877   -0.4415 C.3     1  UNL1        0.0000
     46 C          -3.5887    2.6195   -1.9433 C.3     1  UNL1        0.0000
     47 C           2.2322    3.9421   -0.6710 C.3     1  UNL1        0.0000
     48 C           3.1648    3.1243    1.5341 C.3     1  UNL1        0.0000
     49 C           3.2241   -3.8719   -0.6314 C.3     1  UNL1        0.0000
     50 C           2.8378   -3.8020    1.8537 C.3     1  UNL1        0.0000
     51 H           5.1119    4.1603   -0.3177 H       1  UNL1        0.0000
     52 H           7.2042    3.5169   -1.4252 H       1  UNL1        0.0000
     53 H           7.4561    1.2409   -2.4062 H       1  UNL1        0.0000
     54 H           5.5706   -0.3751   -2.2261 H       1  UNL1        0.0000
     55 H           3.4899    0.2575   -1.1289 H       1  UNL1        0.0000
     56 H           5.6266   -3.1263   -0.4967 H       1  UNL1        0.0000
     57 H           7.5836   -1.7215   -0.0318 H       1  UNL1        0.0000
     58 H           7.4103    0.1991    1.5365 H       1  UNL1        0.0000
     59 H           5.2380    0.6735    2.6496 H       1  UNL1        0.0000
     60 H           3.2724   -0.7336    2.1885 H       1  UNL1        0.0000
     61 H          -5.5981   -2.8100    0.9740 H       1  UNL1        0.0000
     62 H          -7.5229   -1.5328    0.1446 H       1  UNL1        0.0000
     63 H          -7.3552   -0.2330   -1.9674 H       1  UNL1        0.0000
     64 H          -5.2173   -0.2470   -3.2439 H       1  UNL1        0.0000
     65 H          -3.2803   -1.5141   -2.4035 H       1  UNL1        0.0000
     66 H          -4.3393    0.4770    0.1686 H       1  UNL1        0.0000
     67 H          -6.1388    0.2476    1.8136 H       1  UNL1        0.0000
     68 H          -6.8903    2.2209    3.1431 H       1  UNL1        0.0000
     69 H          -5.7955    4.4237    2.7792 H       1  UNL1        0.0000
     70 H          -3.9832    4.6521    1.1369 H       1  UNL1        0.0000
     71 H          -3.6355   -4.8707   -1.3180 H       1  UNL1        0.0000
     72 H          -2.5760   -3.7696   -2.2195 H       1  UNL1        0.0000
     73 H          -1.9029   -4.7845   -0.9370 H       1  UNL1        0.0000
     74 H          -2.3896   -4.2897    1.4821 H       1  UNL1        0.0000
     75 H          -3.5247   -3.0220    1.9489 H       1  UNL1        0.0000
     76 H          -4.1099   -4.4902    1.1278 H       1  UNL1        0.0000
     77 H          -2.7170    4.8627   -0.6620 H       1  UNL1        0.0000
     78 H          -1.6710    4.0969    0.5573 H       1  UNL1        0.0000
     79 H          -1.2855    3.9618   -1.1713 H       1  UNL1        0.0000
     80 H          -4.1332    1.6824   -2.0697 H       1  UNL1        0.0000
     81 H          -4.2971    3.4459   -2.0505 H       1  UNL1        0.0000
     82 H          -2.8351    2.6903   -2.7307 H       1  UNL1        0.0000
     83 H           2.9297    4.7829   -0.6639 H       1  UNL1        0.0000
     84 H           2.0105    3.6777   -1.7059 H       1  UNL1        0.0000
     85 H           1.3062    4.2645   -0.1832 H       1  UNL1        0.0000
     86 H           3.8941    3.9370    1.5521 H       1  UNL1        0.0000
     87 H           2.2617    3.4565    2.0514 H       1  UNL1        0.0000
     88 H           3.5789    2.2760    2.0806 H       1  UNL1        0.0000
     89 H           4.0190   -4.6024   -0.4604 H       1  UNL1        0.0000
     90 H           2.2951   -4.4241   -0.7972 H       1  UNL1        0.0000
     91 H           3.4461   -3.3054   -1.5367 H       1  UNL1        0.0000
     92 H           3.7106   -4.4385    2.0228 H       1  UNL1        0.0000
     93 H           2.6884   -3.1740    2.7319 H       1  UNL1        0.0000
     94 H           1.9569   -4.4406    1.7345 H       1  UNL1        0.0000
@<TRIPOS>BOND
     1     1     7    1
     2     1     9    1
     3     2    12    1
     4     2     8    1
     5     2    10    1
     6     2     1    1
     7     3    13    1
     8     4    11    1
     9     5    22    1
    10     5     9    1
    11     6    15    1
    12     6     7    1
    13     8     6    1
    14    10     5    1
    15    11     1    1
    16    12     4    1
    17    13     1    1
    18    14     2    1
    19    14     3    1
    20    15    48    1
    21    16    15    1
    22    17    16   ar
    23    17    51    1
    24    18    17   ar
    25    19    20   ar
    26    19    18   ar
    27    20    21   ar
    28    21    55    1
    29    21    16   ar
    30    22    23    1
    31    22    50    1
    32    23    28   ar
    33    24    25   ar
    34    24    23   ar
    35    25    26   ar
    36    26    58    1
    37    26    27   ar
    38    27    59    1
    39    28    27   ar
    40    28    60    1
    41    29     4    1
    42    29    44    1
    43    30    29    1
    44    30    31   ar
    45    31    61    1
    46    32    31   ar
    47    32    62    1
    48    33    32   ar
    49    34    35   ar
    50    34    33   ar
    51    35    30   ar
    52    36    45    1
    53    36     3    1
    54    36    37    1
    55    37    38   ar
    56    37    42   ar
    57    38    39   ar
    58    39    67    1
    59    39    40   ar
    60    40    68    1
    61    41    40   ar
    62    41    69    1
    63    42    41   ar
    64    43    73    1
    65    43    29    1
    66    44    74    1
    67    44    75    1
    68    45    78    1
    69    46    36    1
    70    47    83    1
    71    47    85    1
    72    47    15    1
    73    48    86    1
    74    48    87    1
    75    48    88    1
    76    49    89    1
    77    49    22    1
    78    50    92    1
    79    50    93    1
    80    52    18    1
    81    53    19    1
    82    54    20    1
    83    56    24    1
    84    57    25    1
    85    63    33    1
    86    64    34    1
    87    65    35    1
    88    66    38    1
    89    70    42    1
    90    71    43    1
    91    72    43    1
    92    76    44    1
    93    77    45    1
    94    79    45    1
    95    80    46    1
    96    81    46    1
    97    82    46    1
    98    84    47    1
    99    90    49    1
   100    91    49    1
   101    94    50    1
