@<TRIPOS>MOLECULE
RhRh_EtEtiPr-O2C4_23_sp
 114 117 0 0 0
SMALL
GASTEIGER

@<TRIPOS>ATOM
      1 Rh          0.0581    0.0560    1.1678 Rh      1  UNL1        0.0000
      2 Rh          0.0354    0.1077   -1.2139 Rh      1  UNL1        0.0000
      3 C           2.1776    1.6595    0.0061 C.3     1  UNL1        0.0000
      4 C          -1.5788    2.1748    0.0054 C.3     1  UNL1        0.0000
      5 C          -2.1018   -1.4864   -0.0253 C.3     1  UNL1        0.0000
      6 C           1.6526   -2.0331   -0.0704 C.3     1  UNL1        0.0000
      7 O          -1.2048    1.6924    1.1232 O.3     1  UNL1        0.0000
      8 O          -1.2140    1.7330   -1.1340 O.3     1  UNL1        0.0000
      9 O           1.7160    1.2787    1.1312 O.3     1  UNL1        0.0000
     10 O           1.6596    1.3679   -1.1225 O.3     1  UNL1        0.0000
     11 O          -1.5771   -1.1823    1.0974 O.3     1  UNL1        0.0000
     12 O          -1.6292   -1.1271   -1.1532 O.3     1  UNL1        0.0000
     13 O           1.2978   -1.5852    1.0674 O.3     1  UNL1        0.0000
     14 O           1.3064   -1.5191   -1.1860 O.3     1  UNL1        0.0000
     15 C          -2.4787    3.4166    0.0027 C.3     1  UNL1        0.0000
     16 C          -2.9765    3.7354    1.4319 C.3     1  UNL1        0.0000
     17 C          -3.9478    2.7484    2.0880 C.3     1  UNL1        0.0000
     18 C          -3.6160    3.2400   -1.0663 C.3     1  UNL1        0.0000
     19 C          -4.3180    1.8755   -1.0609 C.3     1  UNL1        0.0000
     20 C          -4.6592    4.3648   -1.0062 C.3     1  UNL1        0.0000
     21 C          -1.5619    4.5838   -0.4898 C.3     1  UNL1        0.0000
     22 C          -0.2796    4.8063    0.3086 C.3     1  UNL1        0.0000
     23 C           3.4681    2.4900   -0.0113 C.3     1  UNL1        0.0000
     24 C           3.7567    3.0853    1.3906 C.3     1  UNL1        0.0000
     25 C           2.8050    4.1730    1.8895 C.3     1  UNL1        0.0000
     26 C           4.6560    1.5225   -0.3885 C.3     1  UNL1        0.0000
     27 C           4.8709    0.4160    0.6548 C.3     1  UNL1        0.0000
     28 C           4.5570    0.9023   -1.7893 C.3     1  UNL1        0.0000
     29 C           3.2964    3.6058   -1.0782 C.3     1  UNL1        0.0000
     30 C           4.5099    4.5175   -1.2700 C.3     1  UNL1        0.0000
     31 C          -3.3879   -2.3267    0.0375 C.3     1  UNL1        0.0000
     32 C          -3.0528   -3.5787    0.9017 C.3     1  UNL1        0.0000
     33 C          -4.2090   -4.5587    1.1116 C.3     1  UNL1        0.0000
     34 C          -3.9264   -2.7505   -1.3700 C.3     1  UNL1        0.0000
     35 C          -4.3877   -1.5912   -2.2687 C.3     1  UNL1        0.0000
     36 C          -2.9899   -3.6738   -2.1620 C.3     1  UNL1        0.0000
     37 C          -4.4857   -1.4583    0.7393 C.3     1  UNL1        0.0000
     38 C          -4.3610   -1.2174    2.2454 C.3     1  UNL1        0.0000
     39 C           2.5486   -3.2778   -0.1471 C.3     1  UNL1        0.0000
     40 C           3.7853   -2.8548   -1.0023 C.3     1  UNL1        0.0000
     41 C           4.8332   -3.9463   -1.2287 C.3     1  UNL1        0.0000
     42 C           1.7710   -4.3813   -0.9396 C.3     1  UNL1        0.0000
     43 C           0.2537   -4.4408   -0.7461 C.3     1  UNL1        0.0000
     44 C           3.0027   -3.8164    1.2487 C.3     1  UNL1        0.0000
     45 C           3.8677   -2.8358    2.0557 C.3     1  UNL1        0.0000
     46 C           1.8765   -4.3725    2.1354 C.3     1  UNL1        0.0000
     47 H          -2.0979    3.8183    2.0751 H       1  UNL1        0.0000
     48 H          -3.4338    4.7310    1.4069 H       1  UNL1        0.0000
     49 H          -3.5762    1.7236    2.0268 H       1  UNL1        0.0000
     50 H          -4.9430    2.7819    1.6383 H       1  UNL1        0.0000
     51 H          -4.0643    2.9946    3.1483 H       1  UNL1        0.0000
     52 H          -3.1086    3.3115   -2.0349 H       1  UNL1        0.0000
     53 H          -3.6010    1.0587   -1.1437 H       1  UNL1        0.0000
     54 H          -4.9872    1.8053   -1.9247 H       1  UNL1        0.0000
     55 H          -4.9241    1.7214   -0.1664 H       1  UNL1        0.0000
     56 H          -5.3454    4.2757   -1.8543 H       1  UNL1        0.0000
     57 H          -4.2096    5.3601   -1.0527 H       1  UNL1        0.0000
     58 H          -5.2604    4.3095   -0.0936 H       1  UNL1        0.0000
     59 H          -1.2965    4.3798   -1.5317 H       1  UNL1        0.0000
     60 H           0.3089    5.6142   -0.1369 H       1  UNL1        0.0000
     61 H           0.3430    3.9099    0.3111 H       1  UNL1        0.0000
     62 H          -0.4739    5.0769    1.3498 H       1  UNL1        0.0000
     63 H           3.7487    2.2750    2.1202 H       1  UNL1        0.0000
     64 H           4.7800    3.4782    1.3728 H       1  UNL1        0.0000
     65 H           3.1219    4.5158    2.8797 H       1  UNL1        0.0000
     66 H           1.7877    3.7887    1.9845 H       1  UNL1        0.0000
     67 H           2.7817    5.0479    1.2335 H       1  UNL1        0.0000
     68 H           5.5478    2.1610   -0.3737 H       1  UNL1        0.0000
     69 H           5.6596   -0.2645    0.3193 H       1  UNL1        0.0000
     70 H           3.9631   -0.1724    0.8072 H       1  UNL1        0.0000
     71 H           5.1728    0.8085    1.6277 H       1  UNL1        0.0000
     72 H           5.4631    0.3226   -1.9935 H       1  UNL1        0.0000
     73 H           4.4658    1.6579   -2.5730 H       1  UNL1        0.0000
     74 H           3.6996    0.2311   -1.8725 H       1  UNL1        0.0000
     75 H           2.4331    4.2167   -0.7979 H       1  UNL1        0.0000
     76 H           4.2814    5.2913   -2.0093 H       1  UNL1        0.0000
     77 H           5.3836    3.9685   -1.6334 H       1  UNL1        0.0000
     78 H           4.7965    5.0237   -0.3433 H       1  UNL1        0.0000
     79 H          -2.2142   -4.1102    0.4457 H       1  UNL1        0.0000
     80 H          -2.6884   -3.2289    1.8692 H       1  UNL1        0.0000
     81 H          -3.9037   -5.3497    1.8036 H       1  UNL1        0.0000
     82 H          -4.5167   -5.0415    0.1798 H       1  UNL1        0.0000
     83 H          -5.0896   -4.0703    1.5395 H       1  UNL1        0.0000
     84 H          -4.8271   -3.3338   -1.1405 H       1  UNL1        0.0000
     85 H          -4.8281   -1.9982   -3.1850 H       1  UNL1        0.0000
     86 H          -3.5503   -0.9516   -2.5516 H       1  UNL1        0.0000
     87 H          -5.1498   -0.9709   -1.7924 H       1  UNL1        0.0000
     88 H          -3.4941   -4.0109   -3.0735 H       1  UNL1        0.0000
     89 H          -2.7060   -4.5659   -1.5986 H       1  UNL1        0.0000
     90 H          -2.0788   -3.1500   -2.4568 H       1  UNL1        0.0000
     91 H          -5.4481   -1.9422    0.5353 H       1  UNL1        0.0000
     92 H          -4.4318   -2.1452    2.8200 H       1  UNL1        0.0000
     93 H          -5.1745   -0.5639    2.5768 H       1  UNL1        0.0000
     94 H          -3.4139   -0.7379    2.4966 H       1  UNL1        0.0000
     95 H           3.4047   -2.5095   -1.9669 H       1  UNL1        0.0000
     96 H           4.2672   -1.9894   -0.5430 H       1  UNL1        0.0000
     97 H           4.3982   -4.8474   -1.6712 H       1  UNL1        0.0000
     98 H           5.3356   -4.2369   -0.3018 H       1  UNL1        0.0000
     99 H           5.6029   -3.5821   -1.9162 H       1  UNL1        0.0000
    100 H           1.9644   -4.2331   -2.0068 H       1  UNL1        0.0000
    101 H          -0.2205   -3.5365   -1.1292 H       1  UNL1        0.0000
    102 H          -0.0310   -4.5537    0.3009 H       1  UNL1        0.0000
    103 H          -0.1621   -5.2886   -1.2993 H       1  UNL1        0.0000
    104 H           3.6437   -4.6726    1.0036 H       1  UNL1        0.0000
    105 H           4.2267   -3.3285    2.9651 H       1  UNL1        0.0000
    106 H           3.2950   -1.9555    2.3533 H       1  UNL1        0.0000
    107 H           4.7469   -2.5015    1.4998 H       1  UNL1        0.0000
    108 H           1.3836   -5.2346    1.6804 H       1  UNL1        0.0000
    109 H           1.1235   -3.6121    2.3517 H       1  UNL1        0.0000
    110 H           2.2985   -4.7108    3.0875 H       1  UNL1        0.0000
    111 H          -2.1577    5.5021   -0.4851 H       1  UNL1        0.0000
    112 H          -4.5304   -0.4899    0.2382 H       1  UNL1        0.0000
    113 H           2.2146   -5.3476   -0.6761 H       1  UNL1        0.0000
    114 H           3.0275    3.1433   -2.0288 H       1  UNL1        0.0000
@<TRIPOS>BOND
     1     2    14    1
     2     2    12    1
     3     2     8    1
     4     2    10    1
     5     2     1    1
     6     3     9    1
     7     4     7    1
     8     5    31    1
     9     5    11    1
    10     6    13    1
    11     7     1    1
    12     8     4    1
    13     9     1    1
    14    10     3    1
    15    11     1    1
    16    12     5    1
    17    13     1    1
    18    14     6    1
    19    15     4    1
    20    15    16    1
    21    16    47    1
    22    16    17    1
    23    17    51    1
    24    18    19    1
    25    18    20    1
    26    18    15    1
    27    19    55    1
    28    20    58    1
    29    21   111    1
    30    21    15    1
    31    21    22    1
    32    22    61    1
    33    22    62    1
    34    23     3    1
    35    23    24    1
    36    24    25    1
    37    24    63    1
    38    25    66    1
    39    25    65    1
    40    26    68    1
    41    26    23    1
    42    26    27    1
    43    27    70    1
    44    27    71    1
    45    28    26    1
    46    29    75    1
    47    29    23    1
    48    30    29    1
    49    30    78    1
    50    31    37    1
    51    31    32    1
    52    32    33    1
    53    32    80    1
    54    33    83    1
    55    33    81    1
    56    34    84    1
    57    34    31    1
    58    35    87    1
    59    35    34    1
    60    36    89    1
    61    36    34    1
    62    37    38    1
    63    38    94    1
    64    38    93    1
    65    38    92    1
    66    39     6    1
    67    39    44    1
    68    40    96    1
    69    40    39    1
    70    41    40    1
    71    41    98    1
    72    42    43    1
    73    42   113    1
    74    42    39    1
    75    43   102    1
    76    44    45    1
    77    44    46    1
    78    45   106    1
    79    45   105    1
    80    46   109    1
    81    46   110    1
    82    48    16    1
    83    49    17    1
    84    50    17    1
    85    52    18    1
    86    53    19    1
    87    54    19    1
    88    56    20    1
    89    57    20    1
    90    59    21    1
    91    60    22    1
    92    64    24    1
    93    67    25    1
    94    69    27    1
    95    72    28    1
    96    73    28    1
    97    74    28    1
    98    76    30    1
    99    77    30    1
   100    79    32    1
   101    82    33    1
   102    85    35    1
   103    86    35    1
   104    88    36    1
   105    90    36    1
   106    91    37    1
   107    95    40    1
   108    97    41    1
   109    99    41    1
   110   100    42    1
   111   101    43    1
   112   103    43    1
   113   104    44    1
   114   107    45    1
   115   108    46    1
   116   112    37    1
   117   114    29    1
