@<TRIPOS>MOLECULE
RhRh_triPh-O2C4_1_sp
 150 165 0 0 0
SMALL
GASTEIGER

@<TRIPOS>ATOM
      1 Rh         -0.0016    0.0003   -1.1932 Rh      1  UNL1        0.0000
      2 Rh         -0.0020   -0.0004    1.1922 Rh      1  UNL1        0.0000
      3 C          -2.3087   -1.2689    0.0168 C.3     1  UNL1        0.0000
      4 C          -1.2702    2.3069   -0.0176 C.3     1  UNL1        0.0000
      5 C           2.3054    1.2682    0.0177 C.3     1  UNL1        0.0000
      6 C           1.2684   -2.3056   -0.0192 C.3     1  UNL1        0.0000
      7 O          -0.9144    1.8234   -1.1387 O.3     1  UNL1        0.0000
      8 O          -0.9612    1.8225    1.1135 O.3     1  UNL1        0.0000
      9 O           1.8202    0.9610   -1.1133 O.3     1  UNL1        0.0000
     10 O           1.8215    0.9127    1.1387 O.3     1  UNL1        0.0000
     11 O           0.9125   -1.8224   -1.1402 O.3     1  UNL1        0.0000
     12 O           0.9587   -1.8220    1.1122 O.3     1  UNL1        0.0000
     13 O          -1.8238   -0.9599   -1.1140 O.3     1  UNL1        0.0000
     14 O          -1.8253   -0.9137    1.1381 O.3     1  UNL1        0.0000
     15 C          -2.2314    3.5213   -0.0956 C.3     1  UNL1        0.0000
     16 C          -1.8445    4.3624   -1.3247 C.ar    1  UNL1        0.0000
     17 C          -0.4947    4.6470   -1.5747 C.ar    1  UNL1        0.0000
     18 C          -0.1270    5.4744   -2.6312 C.ar    1  UNL1        0.0000
     19 C          -1.1038    6.0381   -3.4551 C.ar    1  UNL1        0.0000
     20 C          -2.4481    5.7690   -3.2064 C.ar    1  UNL1        0.0000
     21 C          -2.8157    4.9368   -2.1464 C.ar    1  UNL1        0.0000
     22 C          -3.6339    2.8736   -0.2923 C.ar    1  UNL1        0.0000
     23 C          -4.7336    3.2314    0.4944 C.ar    1  UNL1        0.0000
     24 C          -5.9864    2.6532    0.2718 C.ar    1  UNL1        0.0000
     25 C          -6.1608    1.7090   -0.7374 C.ar    1  UNL1        0.0000
     26 C          -5.0747    1.3578   -1.5398 C.ar    1  UNL1        0.0000
     27 C          -3.8279    1.9367   -1.3216 C.ar    1  UNL1        0.0000
     28 C          -2.1666    4.3784    1.1837 C.ar    1  UNL1        0.0000
     29 C          -2.3438    3.7996    2.4515 C.ar    1  UNL1        0.0000
     30 C          -2.2799    4.5745    3.6071 C.ar    1  UNL1        0.0000
     31 C          -2.0574    5.9506    3.5250 C.ar    1  UNL1        0.0000
     32 C          -1.9142    6.5409    2.2721 C.ar    1  UNL1        0.0000
     33 C          -1.9689    5.7620    1.1147 C.ar    1  UNL1        0.0000
     34 C           3.5205    2.2285    0.0959 C.3     1  UNL1        0.0000
     35 C           4.3616    1.8391    1.3241 C.ar    1  UNL1        0.0000
     36 C           4.9411    2.8088    2.1441 C.ar    1  UNL1        0.0000
     37 C           5.7731    2.4391    3.2035 C.ar    1  UNL1        0.0000
     38 C           6.0372    1.0940    3.4531 C.ar    1  UNL1        0.0000
     39 C           5.4686    0.1186    2.6309 C.ar    1  UNL1        0.0000
     40 C           4.6415    0.4885    1.5750 C.ar    1  UNL1        0.0000
     41 C           2.8747    3.6316    0.2951 C.ar    1  UNL1        0.0000
     42 C           1.9389    3.8257    1.3254 C.ar    1  UNL1        0.0000
     43 C           1.3620    5.0731    1.5456 C.ar    1  UNL1        0.0000
     44 C           1.7140    6.1597    0.7443 C.ar    1  UNL1        0.0000
     45 C           2.6568    5.9851   -0.2661 C.ar    1  UNL1        0.0000
     46 C           3.2332    4.7317   -0.4906 C.ar    1  UNL1        0.0000
     47 C           4.3772    2.1647   -1.1833 C.ar    1  UNL1        0.0000
     48 C           5.7605    1.9662   -1.1135 C.ar    1  UNL1        0.0000
     49 C           6.5407    1.9134   -2.2703 C.ar    1  UNL1        0.0000
     50 C           5.9517    2.0586   -3.5235 C.ar    1  UNL1        0.0000
     51 C           4.5756    2.2814   -3.6064 C.ar    1  UNL1        0.0000
     52 C           3.7997    2.3437   -2.4517 C.ar    1  UNL1        0.0000
     53 C           2.2317   -3.5182   -0.0960 C.3     1  UNL1        0.0000
     54 C           2.1696   -4.3716    1.1856 C.ar    1  UNL1        0.0000
     55 C           1.9676   -5.7546    1.1215 C.ar    1  UNL1        0.0000
     56 C           1.9155   -6.5302    2.2814 C.ar    1  UNL1        0.0000
     57 C           2.0654   -5.9367    3.5319 C.ar    1  UNL1        0.0000
     58 C           2.2925   -4.5609    3.6092 C.ar    1  UNL1        0.0000
     59 C           2.3538   -3.7897    2.4513 C.ar    1  UNL1        0.0000
     60 C           1.8453   -4.3615   -1.3235 C.ar    1  UNL1        0.0000
     61 C           2.8173   -4.9371   -2.1436 C.ar    1  UNL1        0.0000
     62 C           2.4508   -5.7709   -3.2026 C.ar    1  UNL1        0.0000
     63 C           1.1067   -6.0404   -3.4521 C.ar    1  UNL1        0.0000
     64 C           0.1291   -5.4752   -2.6302 C.ar    1  UNL1        0.0000
     65 C           0.4957   -4.6462   -1.5748 C.ar    1  UNL1        0.0000
     66 C           3.6336   -2.8697   -0.2967 C.ar    1  UNL1        0.0000
     67 C           4.7356   -3.2281    0.4862 C.ar    1  UNL1        0.0000
     68 C           5.9881   -2.6502    0.2597 C.ar    1  UNL1        0.0000
     69 C           6.1595   -1.7061   -0.7499 C.ar    1  UNL1        0.0000
     70 C           5.0708   -1.3544   -1.5486 C.ar    1  UNL1        0.0000
     71 C           3.8246   -1.9329   -1.3265 C.ar    1  UNL1        0.0000
     72 C          -3.5219   -2.2318    0.0936 C.3     1  UNL1        0.0000
     73 C          -2.8729   -3.6338    0.2912 C.ar    1  UNL1        0.0000
     74 C          -3.2288   -4.7337   -0.4961 C.ar    1  UNL1        0.0000
     75 C          -2.6509   -5.9865   -0.2718 C.ar    1  UNL1        0.0000
     76 C          -1.7094   -6.1606    0.7398 C.ar    1  UNL1        0.0000
     77 C          -1.3603   -5.0742    1.5427 C.ar    1  UNL1        0.0000
     78 C          -1.9386   -3.8275    1.3228 C.ar    1  UNL1        0.0000
     79 C          -4.3628   -1.8469    1.3232 C.ar    1  UNL1        0.0000
     80 C          -4.6448   -0.4973    1.5776 C.ar    1  UNL1        0.0000
     81 C          -5.4712   -0.1314    2.6352 C.ar    1  UNL1        0.0000
     82 C          -6.0368   -1.1098    3.4561 C.ar    1  UNL1        0.0000
     83 C          -5.7704   -2.4538    3.2031 C.ar    1  UNL1        0.0000
     84 C          -4.9390   -2.8196    2.1418 C.ar    1  UNL1        0.0000
     85 C          -4.3794   -2.1671   -1.1850 C.ar    1  UNL1        0.0000
     86 C          -3.8019   -2.3423   -2.4539 C.ar    1  UNL1        0.0000
     87 C          -4.5780   -2.2771   -3.6084 C.ar    1  UNL1        0.0000
     88 C          -5.9543   -2.0556   -3.5245 C.ar    1  UNL1        0.0000
     89 C          -6.5435   -1.9151   -2.2709 C.ar    1  UNL1        0.0000
     90 C          -5.7630   -1.9707   -1.1144 C.ar    1  UNL1        0.0000
     91 H           0.2765    4.2278   -0.9401 H       1  UNL1        0.0000
     92 H           0.9251    5.6793   -2.8013 H       1  UNL1        0.0000
     93 H          -0.8183    6.6823   -4.2812 H       1  UNL1        0.0000
     94 H          -3.2178    6.2048   -3.8363 H       1  UNL1        0.0000
     95 H          -3.8642    4.7362   -1.9596 H       1  UNL1        0.0000
     96 H          -4.6191    3.9659    1.2812 H       1  UNL1        0.0000
     97 H          -6.8247    2.9445    0.8976 H       1  UNL1        0.0000
     98 H          -7.1292    1.2459   -0.8970 H       1  UNL1        0.0000
     99 H          -5.1911    0.6209   -2.3265 H       1  UNL1        0.0000
    100 H          -2.9966    1.6593   -1.9547 H       1  UNL1        0.0000
    101 H          -2.5334    2.7384    2.5335 H       1  UNL1        0.0000
    102 H          -2.4110    4.0999    4.5750 H       1  UNL1        0.0000
    103 H          -2.0074    6.5529    4.4271 H       1  UNL1        0.0000
    104 H          -1.7552    7.6117    2.1865 H       1  UNL1        0.0000
    105 H          -1.8435    6.2405    0.1529 H       1  UNL1        0.0000
    106 H           4.7443    3.8579    1.9564 H       1  UNL1        0.0000
    107 H           6.2127    3.2076    3.8321 H       1  UNL1        0.0000
    108 H           6.6815    0.8066    4.2785 H       1  UNL1        0.0000
    109 H           5.6698   -0.9341    2.8016 H       1  UNL1        0.0000
    110 H           4.2185   -0.2816    0.9416 H       1  UNL1        0.0000
    111 H           0.6265    5.1897    2.3336 H       1  UNL1        0.0000
    112 H           1.2514    7.1281    0.9050 H       1  UNL1        0.0000
    113 H           2.9490    6.8237   -0.8911 H       1  UNL1        0.0000
    114 H           3.9666    4.6173   -1.2784 H       1  UNL1        0.0000
    115 H           6.2382    1.8385   -0.1515 H       1  UNL1        0.0000
    116 H           6.5552    2.0099   -4.4248 H       1  UNL1        0.0000
    117 H           4.1018    2.4140   -4.5745 H       1  UNL1        0.0000
    118 H           2.7386    2.5338   -2.5343 H       1  UNL1        0.0000
    119 H           1.8367   -6.2354    0.1615 H       1  UNL1        0.0000
    120 H           1.7530   -7.6008    2.1999 H       1  UNL1        0.0000
    121 H           2.0173   -6.5368    4.4356 H       1  UNL1        0.0000
    122 H           2.4288   -4.0838    4.5751 H       1  UNL1        0.0000
    123 H           2.5479   -2.7289    2.5293 H       1  UNL1        0.0000
    124 H           3.8656   -4.7360   -1.9562 H       1  UNL1        0.0000
    125 H           3.2211   -6.2077   -3.8310 H       1  UNL1        0.0000
    126 H           0.8220   -6.6859   -4.2775 H       1  UNL1        0.0000
    127 H          -0.9228   -5.6804   -2.8010 H       1  UNL1        0.0000
    128 H          -0.2761   -4.2256   -0.9417 H       1  UNL1        0.0000
    129 H           4.6239   -3.9625    1.2735 H       1  UNL1        0.0000
    130 H           6.8282   -2.9423    0.8827 H       1  UNL1        0.0000
    131 H           7.1272   -1.2424   -0.9122 H       1  UNL1        0.0000
    132 H           5.1849   -0.6178   -2.3359 H       1  UNL1        0.0000
    133 H           2.9915   -1.6552   -1.9572 H       1  UNL1        0.0000
    134 H          -3.9615   -4.6197   -1.2846 H       1  UNL1        0.0000
    135 H          -2.9411   -6.8250   -0.8979 H       1  UNL1        0.0000
    136 H          -1.2460   -7.1287    0.9005 H       1  UNL1        0.0000
    137 H          -1.6630   -2.9960    1.9566 H       1  UNL1        0.0000
    138 H          -4.2244    0.2749    0.9450 H       1  UNL1        0.0000
    139 H          -5.6743    0.9205    2.8087 H       1  UNL1        0.0000
    140 H          -6.6801   -0.8254    4.2833 H       1  UNL1        0.0000
    141 H          -6.2077   -3.2248    3.8302 H       1  UNL1        0.0000
    142 H          -4.7405   -3.8679    1.9516 H       1  UNL1        0.0000
    143 H          -2.7407   -2.5314   -2.5373 H       1  UNL1        0.0000
    144 H          -4.1043   -2.4063   -4.5769 H       1  UNL1        0.0000
    145 H          -6.5579   -2.0045   -4.4256 H       1  UNL1        0.0000
    146 H          -6.2403   -1.8469   -0.1517 H       1  UNL1        0.0000
    147 H           7.6114    1.7536   -2.1839 H       1  UNL1        0.0000
    148 H          -7.6143   -1.7568   -2.1842 H       1  UNL1        0.0000
    149 H          -0.6257   -5.1905    2.3315 H       1  UNL1        0.0000
    150 H           1.6609    2.9940    1.9578 H       1  UNL1        0.0000
@<TRIPOS>BOND
     1     1    11    1
     2     1     7    1
     3     1    13    1
     4     1     9    1
     5     1     2    1
     6     3    72    1
     7     3    14    1
     8     4     8    1
     9     5    34    1
    10     5    10    1
    11     6    12    1
    12     7     4    1
    13     8     2    1
    14     9     5    1
    15    10     2    1
    16    11     6    1
    17    12     2    1
    18    13     3    1
    19    14     2    1
    20    15     4    1
    21    15    28    1
    22    16    15    1
    23    17    16   ar
    24    17    91    1
    25    18    17   ar
    26    19    20   ar
    27    19    18   ar
    28    20    21   ar
    29    21    95    1
    30    21    16   ar
    31    22    15    1
    32    22    23   ar
    33    23    96    1
    34    24    23   ar
    35    24    97    1
    36    25    24   ar
    37    26    27   ar
    38    26    25   ar
    39    27    22   ar
    40    28    29   ar
    41    29   101    1
    42    29    30   ar
    43    30   102    1
    44    31    30   ar
    45    31   103    1
    46    32    31   ar
    47    33    28   ar
    48    33    32   ar
    49    34    41    1
    50    34    35    1
    51    35    40   ar
    52    35    36   ar
    53    36    37   ar
    54    37    38   ar
    55    37   107    1
    56    38   108    1
    57    39   109    1
    58    39    38   ar
    59    40    39   ar
    60    41    42   ar
    61    42    43   ar
    62    42   150    1
    63    43   111    1
    64    44   112    1
    65    44    43   ar
    66    45    44   ar
    67    46    45   ar
    68    46    41   ar
    69    47    48   ar
    70    47    34    1
    71    48   115    1
    72    49   147    1
    73    49    48   ar
    74    50    49   ar
    75    51    50   ar
    76    51    52   ar
    77    52    47   ar
    78    53     6    1
    79    53    54    1
    80    54    59   ar
    81    55    54   ar
    82    55    56   ar
    83    56    57   ar
    84    57    58   ar
    85    57   121    1
    86    58   122    1
    87    59   123    1
    88    59    58   ar
    89    60    53    1
    90    61   124    1
    91    61    60   ar
    92    62    61   ar
    93    63    62   ar
    94    63    64   ar
    95    64    65   ar
    96    65    60   ar
    97    65   128    1
    98    66    53    1
    99    66    67   ar
   100    67   129    1
   101    68    67   ar
   102    68   130    1
   103    69    68   ar
   104    70    71   ar
   105    70    69   ar
   106    71    66   ar
   107    72    73    1
   108    72    79    1
   109    73    78   ar
   110    74    75   ar
   111    74    73   ar
   112    75    76   ar
   113    76   136    1
   114    76    77   ar
   115    77   149    1
   116    78    77   ar
   117    78   137    1
   118    79    80   ar
   119    79    84   ar
   120    80    81   ar
   121    81   139    1
   122    81    82   ar
   123    82   140    1
   124    83    82   ar
   125    83   141    1
   126    84    83   ar
   127    85    90   ar
   128    85    72    1
   129    86    85   ar
   130    87    88   ar
   131    87    86   ar
   132    88    89   ar
   133    89   148    1
   134    89    90   ar
   135    90   146    1
   136    92    18    1
   137    93    19    1
   138    94    20    1
   139    98    25    1
   140    99    26    1
   141   100    27    1
   142   104    32    1
   143   105    33    1
   144   106    36    1
   145   110    40    1
   146   113    45    1
   147   114    46    1
   148   116    50    1
   149   117    51    1
   150   118    52    1
   151   119    55    1
   152   120    56    1
   153   125    62    1
   154   126    63    1
   155   127    64    1
   156   131    69    1
   157   132    70    1
   158   133    71    1
   159   134    74    1
   160   135    75    1
   161   138    80    1
   162   142    84    1
   163   143    86    1
   164   144    87    1
   165   145    88    1
