@<TRIPOS>MOLECULE
RhRh_ACB4_23_sp
 114 129 0 0 0
SMALL
GASTEIGER

@<TRIPOS>ATOM
      1 Rh         -0.0034    0.0174   -0.1147 Rh      1  UNL1        0.0000
      2 Rh         -0.0400   -0.7633   -2.3779 Rh      1  UNL1        0.0000
      3 C          -1.8490   -2.1494   -0.6044 C.3     1  UNL1        0.0000
      4 C           1.9276    1.2778   -1.8318 C.3     1  UNL1        0.0000
      5 C          -1.9794    1.2906   -1.7768 C.3     1  UNL1        0.0000
      6 C           1.8358   -2.1474   -0.6802 C.3     1  UNL1        0.0000
      7 O           1.4901   -1.3550    0.2484 O.3     1  UNL1        0.0000
      8 O           1.3899   -2.1474   -1.8716 O.3     1  UNL1        0.0000
      9 O           1.4337    1.3665   -0.6649 O.3     1  UNL1        0.0000
     10 O           1.4652    0.5854   -2.7918 O.3     1  UNL1        0.0000
     11 O          -1.5006    1.3268   -0.6010 O.3     1  UNL1        0.0000
     12 O          -1.5199    0.6207   -2.7536 O.3     1  UNL1        0.0000
     13 O          -1.4421   -1.3840    0.3216 O.3     1  UNL1        0.0000
     14 O          -1.4828   -2.1172   -1.8214 O.3     1  UNL1        0.0000
     15 N           3.8154   -2.7737    0.6181 N.am    1  UNL1        0.0000
     16 N           3.7141    2.5991   -0.8511 N.am    1  UNL1        0.0000
     17 N          -3.7144    2.6543   -0.7773 N.am    1  UNL1        0.0000
     18 N          -3.8903   -2.7028    0.6145 N.am    1  UNL1        0.0000
     19 C           2.7931   -3.2703   -0.2980 C.3     1  UNL1        0.0000
     20 C           3.3672   -4.1695   -1.4329 C.3     1  UNL1        0.0000
     21 C           3.0036   -5.4237   -0.6050 C.3     1  UNL1        0.0000
     22 C           2.0474   -4.5473    0.2328 C.3     1  UNL1        0.0000
     23 C           5.0018   -2.1440    0.1712 C.2     1  UNL1        0.0000
     24 C           5.6905   -1.6550    1.3982 C.ar    1  UNL1        0.0000
     25 C           6.9055   -1.0033    1.5376 C.ar    1  UNL1        0.0000
     26 C           7.2928   -0.6354    2.8314 C.ar    1  UNL1        0.0000
     27 C           6.4782   -0.9148    3.9377 C.ar    1  UNL1        0.0000
     28 C           5.2493   -1.5680    3.7819 C.ar    1  UNL1        0.0000
     29 C           4.8793   -1.9289    2.4946 C.ar    1  UNL1        0.0000
     30 C           3.6465   -2.6146    2.0135 C.2     1  UNL1        0.0000
     31 C           3.2175    2.0421   -2.1039 C.3     1  UNL1        0.0000
     32 C           3.2190    3.0315   -3.3124 C.3     1  UNL1        0.0000
     33 C           4.5948    2.4742   -3.7449 C.3     1  UNL1        0.0000
     34 C           4.3259    1.2350   -2.8604 C.3     1  UNL1        0.0000
     35 C           4.0968    1.7140    0.1797 C.2     1  UNL1        0.0000
     36 C           4.2787    2.5391    1.3988 C.ar    1  UNL1        0.0000
     37 C           4.7034    2.1786    2.6684 C.ar    1  UNL1        0.0000
     38 C           4.7513    3.1902    3.6350 C.ar    1  UNL1        0.0000
     39 C           4.3807    4.5056    3.3267 C.ar    1  UNL1        0.0000
     40 C           3.9480    4.8542    2.0410 C.ar    1  UNL1        0.0000
     41 C           3.9078    3.8468    1.0898 C.ar    1  UNL1        0.0000
     42 C           3.4712    3.8926   -0.3374 C.2     1  UNL1        0.0000
     43 C          -3.2452    2.1033   -2.0331 C.3     1  UNL1        0.0000
     44 C          -4.2970    1.2906   -2.8541 C.3     1  UNL1        0.0000
     45 C          -3.8182    2.0108   -4.1385 C.3     1  UNL1        0.0000
     46 C          -3.1229    3.0717   -3.2490 C.3     1  UNL1        0.0000
     47 C          -3.3199    3.8948   -0.2359 C.2     1  UNL1        0.0000
     48 C          -3.7768    3.8706    1.1862 C.ar    1  UNL1        0.0000
     49 C          -3.7087    4.8508    2.1636 C.ar    1  UNL1        0.0000
     50 C          -4.2018    4.5270    3.4341 C.ar    1  UNL1        0.0000
     51 C          -4.7392    3.2615    3.7021 C.ar    1  UNL1        0.0000
     52 C          -4.8022    2.2760    2.7092 C.ar    1  UNL1        0.0000
     53 C          -4.3127    2.6102    1.4561 C.ar    1  UNL1        0.0000
     54 C          -4.2126    1.7957    0.2177 C.2     1  UNL1        0.0000
     55 C          -2.8098   -3.2610   -0.1761 C.3     1  UNL1        0.0000
     56 C          -1.9878   -4.4274    0.4591 C.3     1  UNL1        0.0000
     57 C          -1.9858   -5.1166   -0.9283 C.3     1  UNL1        0.0000
     58 C          -3.1921   -4.2281   -1.3252 C.3     1  UNL1        0.0000
     59 C          -5.0522   -2.1579    0.0326 C.2     1  UNL1        0.0000
     60 C          -5.8704   -1.6521    1.1726 C.ar    1  UNL1        0.0000
     61 C          -7.1097   -1.0334    1.1757 C.ar    1  UNL1        0.0000
     62 C          -7.6237   -0.6272    2.4127 C.ar    1  UNL1        0.0000
     63 C          -6.9082   -0.8400    3.5990 C.ar    1  UNL1        0.0000
     64 C          -5.6542   -1.4638    3.5824 C.ar    1  UNL1        0.0000
     65 C          -5.1562   -1.8606    2.3504 C.ar    1  UNL1        0.0000
     66 C          -3.8633   -2.5241    2.0121 C.2     1  UNL1        0.0000
     67 H           2.7395   -4.0623   -2.3178 H       1  UNL1        0.0000
     68 H           4.4052   -3.9984   -1.7047 H       1  UNL1        0.0000
     69 H           3.8482   -5.7842   -0.0114 H       1  UNL1        0.0000
     70 H           2.5646   -6.2687   -1.1402 H       1  UNL1        0.0000
     71 H           2.0070   -4.6663    1.3121 H       1  UNL1        0.0000
     72 H           1.0320   -4.5606   -0.1706 H       1  UNL1        0.0000
     73 H           6.8064   -0.6167    4.9286 H       1  UNL1        0.0000
     74 H           4.6040   -1.7864    4.6260 H       1  UNL1        0.0000
     75 H           2.4274    2.7317   -4.0020 H       1  UNL1        0.0000
     76 H           3.1223    4.0861   -3.0693 H       1  UNL1        0.0000
     77 H           4.7519    2.3032   -4.8121 H       1  UNL1        0.0000
     78 H           5.4180    3.0826   -3.3604 H       1  UNL1        0.0000
     79 H           5.1262    0.8330   -2.2415 H       1  UNL1        0.0000
     80 H           3.8608    0.4208   -3.4167 H       1  UNL1        0.0000
     81 H           5.0770    2.9520    4.6427 H       1  UNL1        0.0000
     82 H           4.4253    5.2654    4.1007 H       1  UNL1        0.0000
     83 H           3.6489    5.8664    1.7917 H       1  UNL1        0.0000
     84 H          -4.2219    0.2055   -2.7961 H       1  UNL1        0.0000
     85 H          -5.3011    1.5957   -2.5533 H       1  UNL1        0.0000
     86 H          -3.0994    1.4094   -4.6961 H       1  UNL1        0.0000
     87 H          -4.5924    2.3739   -4.8182 H       1  UNL1        0.0000
     88 H          -3.7388    3.9551   -3.0823 H       1  UNL1        0.0000
     89 H          -2.1133    3.3915   -3.5090 H       1  UNL1        0.0000
     90 H          -3.2836    5.8246    1.9458 H       1  UNL1        0.0000
     91 H          -4.1640    5.2668    4.2274 H       1  UNL1        0.0000
     92 H          -5.1089    3.0417    4.6988 H       1  UNL1        0.0000
     93 H          -5.2108    1.2909    2.9044 H       1  UNL1        0.0000
     94 H          -1.0455   -4.1576    0.9369 H       1  UNL1        0.0000
     95 H          -2.6048   -4.9624    1.1819 H       1  UNL1        0.0000
     96 H          -1.0963   -4.8663   -1.5123 H       1  UNL1        0.0000
     97 H          -2.1299   -6.1988   -0.9449 H       1  UNL1        0.0000
     98 H          -4.1444   -4.7104   -1.0974 H       1  UNL1        0.0000
     99 H          -3.2268   -3.8021   -2.3254 H       1  UNL1        0.0000
    100 H          -7.6465   -0.8644    0.2489 H       1  UNL1        0.0000
    101 H          -5.0853   -1.6324    4.4904 H       1  UNL1        0.0000
    102 O           3.0035    4.8393   -0.9351 O.2     1  UNL1        0.0000
    103 O           4.2127    0.5127    0.0512 O.2     1  UNL1        0.0000
    104 O          -2.7301    4.7752   -0.8262 O.2     1  UNL1        0.0000
    105 O          -4.4712    0.6212    0.0488 O.2     1  UNL1        0.0000
    106 O          -2.9744   -2.8663    2.7626 O.2     1  UNL1        0.0000
    107 O          -5.3002   -2.1392   -1.1548 O.2     1  UNL1        0.0000
    108 O           2.6999   -2.9790    2.6785 O.2     1  UNL1        0.0000
    109 O           5.3674   -2.0415   -0.9807 O.2     1  UNL1        0.0000
    110 H           7.5197   -0.7850    0.6710 H       1  UNL1        0.0000
    111 H           8.2370   -0.1220    2.9833 H       1  UNL1        0.0000
    112 H           4.9806    1.1563    2.8964 H       1  UNL1        0.0000
    113 H          -8.5910   -0.1366    2.4569 H       1  UNL1        0.0000
    114 H          -7.3342   -0.5147    4.5430 H       1  UNL1        0.0000
@<TRIPOS>BOND
     1     1     7    1
     2     1    13    1
     3     2     8    1
     4     2    14    1
     5     2     1    1
     6     3    55    1
     7     3    13    1
     8     4     9    1
     9     5    11    1
    10     6    19    1
    11     6     7    1
    12     8     6    1
    13     9     1    1
    14    10     2    1
    15    10     4    1
    16    11     1    1
    17    12     2    1
    18    12     5    1
    19    14     3    1
    20    15    30   am
    21    16    42   am
    22    16    35   am
    23    17    47   am
    24    17    54   am
    25    18    66   am
    26    19    22    1
    27    19    15    1
    28    20    21    1
    29    20    19    1
    30    21    69    1
    31    21    22    1
    32    22    71    1
    33    23    15   am
    34    23    24    1
    35    24    25   ar
    36    24    29   ar
    37    25    26   ar
    38    26   111    1
    39    26    27   ar
    40    27    73    1
    41    28    27   ar
    42    28    74    1
    43    29    28   ar
    44    30    29    1
    45    30   108    2
    46    31     4    1
    47    31    16    1
    48    32    76    1
    49    32    31    1
    50    33    78    1
    51    33    32    1
    52    33    34    1
    53    34    79    1
    54    34    31    1
    55    35    36    1
    56    36    37   ar
    57    37   112    1
    58    37    38   ar
    59    38    81    1
    60    39    38   ar
    61    39    82    1
    62    40    39   ar
    63    41    36   ar
    64    41    40   ar
    65    42    41    1
    66    43     5    1
    67    43    17    1
    68    44    84    1
    69    44    85    1
    70    44    43    1
    71    45    46    1
    72    45    44    1
    73    46    88    1
    74    46    43    1
    75    47    48    1
    76    48    53   ar
    77    48    49   ar
    78    49    50   ar
    79    50    51   ar
    80    50    91    1
    81    51    92    1
    82    52    93    1
    83    52    51   ar
    84    53    52   ar
    85    54    53    1
    86    55    56    1
    87    55    18    1
    88    56    94    1
    89    56    95    1
    90    57    56    1
    91    58    98    1
    92    58    57    1
    93    58    55    1
    94    59    18   am
    95    59    60    1
    96    60    61   ar
    97    60    65   ar
    98    61    62   ar
    99    62   113    1
   100    62    63   ar
   101    63   114    1
   102    64    63   ar
   103    64   101    1
   104    65    64   ar
   105    66    65    1
   106    66   106    2
   107    67    20    1
   108    68    20    1
   109    70    21    1
   110    72    22    1
   111    75    32    1
   112    77    33    1
   113    80    34    1
   114    83    40    1
   115    86    45    1
   116    87    45    1
   117    89    46    1
   118    90    49    1
   119    96    57    1
   120    97    57    1
   121    99    58    1
   122   100    61    1
   123   102    42    2
   124   103    35    2
   125   104    47    2
   126   105    54    2
   127   107    59    2
   128   109    23    2
   129   110    25    1
