@<TRIPOS>MOLECULE
RhRh_S-TCPTTL4_fromcarbene_20kcal_4_sp
 134 145 0 0 0
SMALL
GASTEIGER

@<TRIPOS>ATOM
      1 Rh         -0.9701   -1.0271   -3.1440 Rh      1  UNL1        0.0000
      2 Rh         -0.4873   -0.8337   -0.8093 Rh      1  UNL1        0.0000
      3 C          -2.1561   -3.0869   -1.5067 C.3     1  UNL1        0.0000
      4 C           0.5977    1.2913   -2.4048 C.3     1  UNL1        0.0000
      5 C           1.4423   -2.3678   -2.3134 C.3     1  UNL1        0.0000
      6 C          -2.9034    0.5008   -1.6480 C.3     1  UNL1        0.0000
      7 O           0.1181    0.7057   -3.4185 O.3     1  UNL1        0.0000
      8 O           0.4900    0.9034   -1.1970 O.3     1  UNL1        0.0000
      9 O          -2.6936    0.0467   -2.8103 O.3     1  UNL1        0.0000
     10 O          -2.1857    0.2901   -0.6181 O.3     1  UNL1        0.0000
     11 O          -2.0358   -2.7404   -2.7204 O.3     1  UNL1        0.0000
     12 O          -1.5506   -2.5682   -0.5193 O.3     1  UNL1        0.0000
     13 O           0.7546   -2.1201   -3.3561 O.3     1  UNL1        0.0000
     14 O           1.2234   -1.9245   -1.1488 O.3     1  UNL1        0.0000
     15 N           2.1756    2.8257   -1.4089 N.am    1  UNL1        0.0000
     16 N          -3.5690    2.7089   -0.9516 N.am    1  UNL1        0.0000
     17 N          -3.7401   -3.9215    0.1066 N.am    1  UNL1        0.0000
     18 N           3.5555   -3.2240   -1.4083 N.am    1  UNL1        0.0000
     19 CL          5.2984    0.4304    1.0117 Cl      1  UNL1        0.0000
     20 CL          5.5230    1.8109    3.8326 Cl      1  UNL1        0.0000
     21 CL          3.7867    4.3405    4.4934 Cl      1  UNL1        0.0000
     22 CL          1.7905    5.5004    2.3320 Cl      1  UNL1        0.0000
     23 CL         -0.8912    6.0548   -2.6261 Cl      1  UNL1        0.0000
     24 CL         -0.2736    8.0179   -0.2328 Cl      1  UNL1        0.0000
     25 CL         -1.5587    7.5212    2.5810 Cl      1  UNL1        0.0000
     26 CL         -3.5346    5.0939    3.0144 Cl      1  UNL1        0.0000
     27 CL         -5.3545   -0.0845    2.1005 Cl      1  UNL1        0.0000
     28 CL         -5.8732   -0.7847    5.1300 Cl      1  UNL1        0.0000
     29 CL         -5.2009   -3.6419    6.2260 Cl      1  UNL1        0.0000
     30 CL         -4.0013   -5.8379    4.3004 Cl      1  UNL1        0.0000
     31 CL          7.9056   -1.6841   -1.1526 Cl      1  UNL1        0.0000
     32 CL          8.7189   -1.7637    1.8969 Cl      1  UNL1        0.0000
     33 CL          6.6689   -2.7578    4.0459 Cl      1  UNL1        0.0000
     34 CL          3.8033   -3.7425    3.1716 Cl      1  UNL1        0.0000
     35 C           1.3119    2.6333   -2.5772 C.3     1  UNL1        0.0000
     36 C           3.0896    1.8763   -0.9188 C.2     1  UNL1        0.0000
     37 C           3.4575    2.3475    0.4580 C.ar    1  UNL1        0.0000
     38 C           4.3421    1.8209    1.3852 C.ar    1  UNL1        0.0000
     39 C           4.4399    2.4514    2.6447 C.ar    1  UNL1        0.0000
     40 C           3.6595    3.5872    2.9413 C.ar    1  UNL1        0.0000
     41 C           2.7690    4.1151    1.9810 C.ar    1  UNL1        0.0000
     42 C           2.6938    3.4782    0.7514 C.ar    1  UNL1        0.0000
     43 C           1.8370    3.7707   -0.4331 C.2     1  UNL1        0.0000
     44 C           1.9706    2.9516   -3.9518 C.3     1  UNL1        0.0000
     45 C           2.9142    1.8422   -4.4413 C.3     1  UNL1        0.0000
     46 C           0.8466    3.1735   -4.9843 C.3     1  UNL1        0.0000
     47 C           2.7520    4.2689   -3.7922 C.3     1  UNL1        0.0000
     48 C          -4.1065    1.4104   -1.3735 C.3     1  UNL1        0.0000
     49 C          -2.5991    3.4442   -1.6426 C.2     1  UNL1        0.0000
     50 C          -2.3172    4.6420   -0.7946 C.ar    1  UNL1        0.0000
     51 C          -1.5371    5.7570   -1.0496 C.ar    1  UNL1        0.0000
     52 C          -1.3065    6.6550    0.0137 C.ar    1  UNL1        0.0000
     53 C          -1.8951    6.4360    1.2740 C.ar    1  UNL1        0.0000
     54 C          -2.7616    5.3405    1.4859 C.ar    1  UNL1        0.0000
     55 C          -2.9560    4.4579    0.4349 C.ar    1  UNL1        0.0000
     56 C          -3.8023    3.2260    0.3354 C.2     1  UNL1        0.0000
     57 C          -5.2382    1.5079   -2.4321 C.3     1  UNL1        0.0000
     58 C          -5.7981    0.0924   -2.6649 C.3     1  UNL1        0.0000
     59 C          -6.3500    2.3858   -1.8262 C.3     1  UNL1        0.0000
     60 C          -4.7887    2.1170   -3.7697 C.3     1  UNL1        0.0000
     61 C          -3.0743   -4.2661   -1.1498 C.3     1  UNL1        0.0000
     62 C          -4.2502   -2.6547    0.4082 C.2     1  UNL1        0.0000
     63 C          -4.5522   -2.6749    1.8720 C.ar    1  UNL1        0.0000
     64 C          -5.0488   -1.6769    2.6977 C.ar    1  UNL1        0.0000
     65 C          -5.2490   -1.9931    4.0605 C.ar    1  UNL1        0.0000
     66 C          -4.9407   -3.2759    4.5548 C.ar    1  UNL1        0.0000
     67 C          -4.4083   -4.2673    3.7008 C.ar    1  UNL1        0.0000
     68 C          -4.2222   -3.9402    2.3668 C.ar    1  UNL1        0.0000
     69 C          -3.6364   -4.7389    1.2441 C.2     1  UNL1        0.0000
     70 C          -4.0291   -4.8136   -2.2501 C.3     1  UNL1        0.0000
     71 C          -4.8913   -5.9201   -1.6130 C.3     1  UNL1        0.0000
     72 C          -4.9496   -3.7301   -2.8333 C.3     1  UNL1        0.0000
     73 C          -3.1753   -5.4465   -3.3660 C.3     1  UNL1        0.0000
     74 C           2.6099   -3.3255   -2.5125 C.3     1  UNL1        0.0000
     75 C           4.8413   -2.7040   -1.6418 C.2     1  UNL1        0.0000
     76 C           5.5174   -2.6747   -0.3093 C.ar    1  UNL1        0.0000
     77 C           6.7934   -2.2585    0.0408 C.ar    1  UNL1        0.0000
     78 C           7.1482   -2.2994    1.4071 C.ar    1  UNL1        0.0000
     79 C           6.2268   -2.7508    2.3729 C.ar    1  UNL1        0.0000
     80 C           4.9396   -3.1874    1.9907 C.ar    1  UNL1        0.0000
     81 C           4.6109   -3.1398    0.6442 C.ar    1  UNL1        0.0000
     82 C           3.3471   -3.5446   -0.0594 C.2     1  UNL1        0.0000
     83 C           2.1287   -4.7855   -2.8753 C.3     1  UNL1        0.0000
     84 C           3.2411   -5.7809   -2.5091 C.3     1  UNL1        0.0000
     85 C           0.8209   -5.1674   -2.1573 C.3     1  UNL1        0.0000
     86 C           1.8976   -4.8332   -4.3972 C.3     1  UNL1        0.0000
     87 H           0.5147    3.3730   -2.4394 H       1  UNL1        0.0000
     88 H           2.3850    0.8926   -4.5484 H       1  UNL1        0.0000
     89 H           3.7504    1.6864   -3.7581 H       1  UNL1        0.0000
     90 H           3.3178    2.1180   -5.4210 H       1  UNL1        0.0000
     91 H           0.2843    2.2574   -5.1645 H       1  UNL1        0.0000
     92 H           1.2849    3.5053   -5.9307 H       1  UNL1        0.0000
     93 H           0.1429    3.9403   -4.6461 H       1  UNL1        0.0000
     94 H           3.1298    4.5916   -4.7666 H       1  UNL1        0.0000
     95 H           3.6093    4.1514   -3.1235 H       1  UNL1        0.0000
     96 H           2.1149    5.0652   -3.3932 H       1  UNL1        0.0000
     97 H          -4.5493    0.9944   -0.4655 H       1  UNL1        0.0000
     98 H          -6.6658    0.1495   -3.3293 H       1  UNL1        0.0000
     99 H          -6.1140   -0.3699   -1.7259 H       1  UNL1        0.0000
    100 H          -5.0553   -0.5592   -3.1264 H       1  UNL1        0.0000
    101 H          -7.2056    2.4200   -2.5071 H       1  UNL1        0.0000
    102 H          -6.0101    3.4139   -1.6694 H       1  UNL1        0.0000
    103 H          -6.6940    1.9929   -0.8644 H       1  UNL1        0.0000
    104 H          -5.6348    2.1127   -4.4649 H       1  UNL1        0.0000
    105 H          -3.9692    1.5503   -4.2114 H       1  UNL1        0.0000
    106 H          -4.4617    3.1531   -3.6553 H       1  UNL1        0.0000
    107 H          -2.3992   -5.0860   -0.8748 H       1  UNL1        0.0000
    108 H          -5.5012   -6.3979   -2.3852 H       1  UNL1        0.0000
    109 H          -5.5709   -5.5143   -0.8581 H       1  UNL1        0.0000
    110 H          -4.2760   -6.6887   -1.1363 H       1  UNL1        0.0000
    111 H          -5.6049   -4.1795   -3.5865 H       1  UNL1        0.0000
    112 H          -4.3769   -2.9319   -3.3062 H       1  UNL1        0.0000
    113 H          -5.5804   -3.2823   -2.0625 H       1  UNL1        0.0000
    114 H          -3.8304   -5.9201   -4.1036 H       1  UNL1        0.0000
    115 H          -2.5138   -6.2222   -2.9637 H       1  UNL1        0.0000
    116 H          -2.5644   -4.7021   -3.8771 H       1  UNL1        0.0000
    117 H           3.1776   -2.9532   -3.3690 H       1  UNL1        0.0000
    118 H           2.9871   -6.7677   -2.9076 H       1  UNL1        0.0000
    119 H           3.3565   -5.8809   -1.4275 H       1  UNL1        0.0000
    120 H           4.2029   -5.4834   -2.9396 H       1  UNL1        0.0000
    121 H           0.5817   -6.2137   -2.3728 H       1  UNL1        0.0000
    122 H          -0.0102   -4.5605   -2.5264 H       1  UNL1        0.0000
    123 H           0.9041   -5.0416   -1.0774 H       1  UNL1        0.0000
    124 H           1.5320   -5.8238   -4.6852 H       1  UNL1        0.0000
    125 H           2.8279   -4.6436   -4.9435 H       1  UNL1        0.0000
    126 H           1.1598   -4.0903   -4.7067 H       1  UNL1        0.0000
    127 O           5.2715   -2.3750   -2.7248 O.2     1  UNL1        0.0000
    128 O          -3.1475   -5.8462    1.2602 O.2     1  UNL1        0.0000
    129 O           2.3737   -4.0822    0.4176 O.2     1  UNL1        0.0000
    130 O          -4.4007   -1.7534   -0.3902 O.2     1  UNL1        0.0000
    131 O          -4.5551    2.7469    1.1539 O.2     1  UNL1        0.0000
    132 O          -2.0644    3.1129   -2.6812 O.2     1  UNL1        0.0000
    133 O           3.4621    0.8819   -1.4997 O.2     1  UNL1        0.0000
    134 O           0.9913    4.6302   -0.5565 O.2     1  UNL1        0.0000
@<TRIPOS>BOND
     1     1     9    1
     2     1    11    1
     3     1     2    1
     4     2    10    1
     5     2    12    1
     6     3    61    1
     7     3    12    1
     8     4    35    1
     9     4     8    1
    10     5    74    1
    11     5    14    1
    12     6    48    1
    13     6    10    1
    14     7     1    1
    15     7     4    1
    16     8     2    1
    17     9     6    1
    18    11     3    1
    19    13     1    1
    20    13     5    1
    21    14     2    1
    22    15    36   am
    23    15    43   am
    24    16    56   am
    25    17    62   am
    26    17    69   am
    27    18    82   am
    28    19    38    1
    29    23    51    1
    30    24    52    1
    31    27    64    1
    32    31    77    1
    33    35    87    1
    34    35    15    1
    35    36    37    1
    36    37    42   ar
    37    37    38   ar
    38    38    39   ar
    39    39    40   ar
    40    39    20    1
    41    40    21    1
    42    41    22    1
    43    41    40   ar
    44    42    41   ar
    45    43    42    1
    46    44    47    1
    47    44    35    1
    48    45    44    1
    49    45    89    1
    50    46    93    1
    51    46    44    1
    52    47    96    1
    53    47    95    1
    54    48    16    1
    55    48    97    1
    56    49    16   am
    57    49    50    1
    58    50    55   ar
    59    51    50   ar
    60    51    52   ar
    61    52    53   ar
    62    53    54   ar
    63    53    25    1
    64    54    26    1
    65    55    54   ar
    66    56    55    1
    67    56   131    2
    68    57    59    1
    69    57    48    1
    70    58    57    1
    71    58    99    1
    72    59   102    1
    73    59   103    1
    74    60   106    1
    75    60    57    1
    76    61   107    1
    77    61    17    1
    78    62    63    1
    79    63    68   ar
    80    63    64   ar
    81    64    65   ar
    82    65    66   ar
    83    65    28    1
    84    66    29    1
    85    67    30    1
    86    67    66   ar
    87    68    67   ar
    88    69   128    2
    89    69    68    1
    90    70    71    1
    91    70    61    1
    92    71   110    1
    93    71   109    1
    94    72    70    1
    95    72   113    1
    96    73   115    1
    97    73    70    1
    98    74   117    1
    99    74    18    1
   100    75    18   am
   101    75    76    1
   102    76    77   ar
   103    76    81   ar
   104    77    78   ar
   105    78    32    1
   106    78    79   ar
   107    79    33    1
   108    80    79   ar
   109    80    34    1
   110    81    80   ar
   111    82   129    2
   112    82    81    1
   113    83    74    1
   114    83    84    1
   115    83    85    1
   116    84   119    1
   117    85   123    1
   118    86    83    1
   119    88    45    1
   120    90    45    1
   121    91    46    1
   122    92    46    1
   123    94    47    1
   124    98    58    1
   125   100    58    1
   126   101    59    1
   127   104    60    1
   128   105    60    1
   129   108    71    1
   130   111    72    1
   131   112    72    1
   132   114    73    1
   133   116    73    1
   134   118    84    1
   135   120    84    1
   136   121    85    1
   137   122    85    1
   138   124    86    1
   139   125    86    1
   140   126    86    1
   141   127    75    2
   142   130    62    2
   143   132    49    2
   144   133    36    2
   145   134    43    2
