@<TRIPOS>MOLECULE
RhRh_PhPhtol-O2C4_34_sp
 162 177 0 0 0
SMALL
GASTEIGER

@<TRIPOS>ATOM
      1 Rh          0.0310    0.0146   -1.1542 Rh      1  UNL1        0.0000
      2 Rh         -0.0103    0.0190    1.2272 Rh      1  UNL1        0.0000
      3 C           2.3840   -1.1407    0.0702 C.3     1  UNL1        0.0000
      4 C          -1.1568   -2.3514    0.0510 C.3     1  UNL1        0.0000
      5 C          -2.3669    1.1520   -0.0332 C.3     1  UNL1        0.0000
      6 C           1.1583    2.3851    0.0544 C.3     1  UNL1        0.0000
      7 O          -1.0479   -1.7604   -1.0659 O.3     1  UNL1        0.0000
      8 O          -0.8422   -1.8411    1.1732 O.3     1  UNL1        0.0000
      9 O          -1.7274    1.0928   -1.1323 O.3     1  UNL1        0.0000
     10 O          -1.8897    0.8302    1.0975 O.3     1  UNL1        0.0000
     11 O           1.0986    1.7747   -1.0562 O.3     1  UNL1        0.0000
     12 O           0.8107    1.8896    1.1729 O.3     1  UNL1        0.0000
     13 O           1.7873   -1.0453   -1.0503 O.3     1  UNL1        0.0000
     14 O           1.8747   -0.8195    1.1866 O.3     1  UNL1        0.0000
     15 C          -1.6869   -3.8088    0.1219 C.3     1  UNL1        0.0000
     16 C          -2.6698   -3.8285    1.3167 C.ar    1  UNL1        0.0000
     17 C          -3.6501   -2.8285    1.4058 C.ar    1  UNL1        0.0000
     18 C          -4.5880   -2.8361    2.4321 C.ar    1  UNL1        0.0000
     19 C          -4.5606   -3.8462    3.3977 C.ar    1  UNL1        0.0000
     20 C          -3.5928   -4.8438    3.3153 C.ar    1  UNL1        0.0000
     21 C          -2.6539   -4.8372    2.2790 C.ar    1  UNL1        0.0000
     22 C          -2.4014   -4.2323   -1.1869 C.ar    1  UNL1        0.0000
     23 C          -3.7101   -4.7329   -1.1067 C.ar    1  UNL1        0.0000
     24 C          -4.4183   -5.1502   -2.2302 C.ar    1  UNL1        0.0000
     25 C          -3.8237   -5.0663   -3.4851 C.ar    1  UNL1        0.0000
     26 C          -2.5134   -4.6081   -3.5776 C.ar    1  UNL1        0.0000
     27 C          -1.7720   -4.2100   -2.4553 C.ar    1  UNL1        0.0000
     28 C          -0.4767   -4.7406    0.4162 C.ar    1  UNL1        0.0000
     29 C          -0.4196   -6.0165   -0.1599 C.ar    1  UNL1        0.0000
     30 C           0.6282   -6.8894    0.1341 C.ar    1  UNL1        0.0000
     31 C           1.6405   -6.5066    1.0131 C.ar    1  UNL1        0.0000
     32 C           1.5837   -5.2482    1.6092 C.ar    1  UNL1        0.0000
     33 C           0.5335   -4.3774    1.3199 C.ar    1  UNL1        0.0000
     34 C          -3.8562    1.6109   -0.0909 C.3     1  UNL1        0.0000
     35 C          -4.2456    2.0295    1.3441 C.ar    1  UNL1        0.0000
     36 C          -4.5208    3.3493    1.7037 C.ar    1  UNL1        0.0000
     37 C          -4.8666    3.6745    3.0185 C.ar    1  UNL1        0.0000
     38 C          -4.9385    2.6847    3.9946 C.ar    1  UNL1        0.0000
     39 C          -4.6623    1.3599    3.6447 C.ar    1  UNL1        0.0000
     40 C          -4.3201    1.0394    2.3358 C.ar    1  UNL1        0.0000
     41 C          -4.7081    0.3976   -0.5707 C.ar    1  UNL1        0.0000
     42 C          -6.0945    0.2919   -0.2926 C.ar    1  UNL1        0.0000
     43 C          -6.7829   -0.8341   -0.7693 C.ar    1  UNL1        0.0000
     44 C          -6.1694   -1.8191   -1.5375 C.ar    1  UNL1        0.0000
     45 C          -4.8291   -1.6722   -1.8730 C.ar    1  UNL1        0.0000
     46 C          -4.1186   -0.5779   -1.3884 C.ar    1  UNL1        0.0000
     47 C          -3.9543    2.7679   -1.1020 C.ar    1  UNL1        0.0000
     48 C          -3.0602    3.8423   -1.0037 C.ar    1  UNL1        0.0000
     49 C          -3.1376    4.9258   -1.8740 C.ar    1  UNL1        0.0000
     50 C          -4.1113    4.9499   -2.8739 C.ar    1  UNL1        0.0000
     51 C          -4.9973    3.8813   -2.9899 C.ar    1  UNL1        0.0000
     52 C          -4.9187    2.7976   -2.1122 C.ar    1  UNL1        0.0000
     53 C           1.6893    3.8423    0.0983 C.3     1  UNL1        0.0000
     54 C           0.5054    4.7927    0.4341 C.ar    1  UNL1        0.0000
     55 C          -0.4287    4.4753    1.4317 C.ar    1  UNL1        0.0000
     56 C          -1.4395    5.3715    1.7781 C.ar    1  UNL1        0.0000
     57 C          -1.5319    6.6104    1.1452 C.ar    1  UNL1        0.0000
     58 C          -0.5937    6.9468    0.1703 C.ar    1  UNL1        0.0000
     59 C           0.4148    6.0481   -0.1801 C.ar    1  UNL1        0.0000
     60 C           2.7074    3.8882    1.2622 C.ar    1  UNL1        0.0000
     61 C           2.7946    4.9893    2.1168 C.ar    1  UNL1        0.0000
     62 C           3.7399    5.0194    3.1444 C.ar    1  UNL1        0.0000
     63 C           4.6088    3.9471    3.3330 C.ar    1  UNL1        0.0000
     64 C           4.5371    2.8489    2.4739 C.ar    1  UNL1        0.0000
     65 C           3.6006    2.8241    1.4450 C.ar    1  UNL1        0.0000
     66 C           2.3494    4.2197   -1.2492 C.ar    1  UNL1        0.0000
     67 C           1.6404    4.2067   -2.4750 C.ar    1  UNL1        0.0000
     68 C           2.3252    4.5588   -3.6463 C.ar    1  UNL1        0.0000
     69 C           3.6623    4.9448   -3.6418 C.ar    1  UNL1        0.0000
     70 C           4.3445    4.9961   -2.4305 C.ar    1  UNL1        0.0000
     71 C           3.6885    4.6322   -1.2571 C.ar    1  UNL1        0.0000
     72 C           3.8774   -1.5993    0.0379 C.3     1  UNL1        0.0000
     73 C           4.6294   -0.2967   -0.3669 C.ar    1  UNL1        0.0000
     74 C           5.7095    0.2029    0.3688 C.ar    1  UNL1        0.0000
     75 C           6.3918    1.3458   -0.0486 C.ar    1  UNL1        0.0000
     76 C           5.9959    2.0226   -1.1992 C.ar    1  UNL1        0.0000
     77 C           4.9208    1.5351   -1.9418 C.ar    1  UNL1        0.0000
     78 C           4.2529    0.3827   -1.5357 C.ar    1  UNL1        0.0000
     79 C           4.2933   -2.1077    1.4337 C.ar    1  UNL1        0.0000
     80 C           4.1932   -1.2740    2.5620 C.ar    1  UNL1        0.0000
     81 C           4.5514   -1.7316    3.8262 C.ar    1  UNL1        0.0000
     82 C           5.0231   -3.0349    3.9986 C.ar    1  UNL1        0.0000
     83 C           5.1376   -3.8671    2.8891 C.ar    1  UNL1        0.0000
     84 C           4.7758   -3.4071    1.6197 C.ar    1  UNL1        0.0000
     85 C           4.0464   -2.7215   -1.0132 C.ar    1  UNL1        0.0000
     86 C           5.2469   -2.9781   -1.7146 C.ar    1  UNL1        0.0000
     87 C           5.2866   -4.0838   -2.5793 C.ar    1  UNL1        0.0000
     88 C           4.2120   -4.9528   -2.7347 C.ar    1  UNL1        0.0000
     89 C           3.0525   -4.7307   -1.9983 C.ar    1  UNL1        0.0000
     90 C           2.9849   -3.6251   -1.1584 C.ar    1  UNL1        0.0000
     91 C          -0.3292   -3.8422   -2.7145 C.3     1  UNL1        0.0000
     92 C          -6.9175    1.3391    0.4271 C.3     1  UNL1        0.0000
     93 C           0.1737    3.8760   -2.6350 C.3     1  UNL1        0.0000
     94 C           6.5292   -2.1920   -1.5590 C.3     1  UNL1        0.0000
     95 H          -3.6956   -2.0497    0.6536 H       1  UNL1        0.0000
     96 H          -5.3433   -2.0569    2.4691 H       1  UNL1        0.0000
     97 H          -5.2897   -3.8549    4.2022 H       1  UNL1        0.0000
     98 H          -3.5618   -5.6360    4.0573 H       1  UNL1        0.0000
     99 H          -1.9098   -5.6226    2.2271 H       1  UNL1        0.0000
    100 H          -4.1961   -4.7925   -0.1437 H       1  UNL1        0.0000
    101 H          -5.4296   -5.5281   -2.1176 H       1  UNL1        0.0000
    102 H          -4.3609   -5.3708   -4.3782 H       1  UNL1        0.0000
    103 H          -2.0270   -4.5734   -4.5492 H       1  UNL1        0.0000
    104 H          -1.1974   -6.3301   -0.8449 H       1  UNL1        0.0000
    105 H           0.6499   -7.8705   -0.3308 H       1  UNL1        0.0000
    106 H           2.4630   -7.1809    1.2305 H       1  UNL1        0.0000
    107 H           2.3650   -4.9268    2.2901 H       1  UNL1        0.0000
    108 H           0.5060   -3.4093    1.7999 H       1  UNL1        0.0000
    109 H          -4.4846    4.1335    0.9588 H       1  UNL1        0.0000
    110 H          -5.0874    4.7076    3.2708 H       1  UNL1        0.0000
    111 H          -5.2094    2.9375    5.0151 H       1  UNL1        0.0000
    112 H          -4.7134    0.5733    4.3915 H       1  UNL1        0.0000
    113 H          -4.1066    0.0098    2.0795 H       1  UNL1        0.0000
    114 H          -7.8422   -0.9180   -0.5418 H       1  UNL1        0.0000
    115 H          -6.7362   -2.6767   -1.8863 H       1  UNL1        0.0000
    116 H          -4.3258   -2.4017   -2.4947 H       1  UNL1        0.0000
    117 H          -3.0806   -0.4926   -1.6659 H       1  UNL1        0.0000
    118 H          -2.2999    3.8413   -0.2326 H       1  UNL1        0.0000
    119 H          -2.4334    5.7432   -1.7638 H       1  UNL1        0.0000
    120 H          -4.1742    5.7912   -3.5574 H       1  UNL1        0.0000
    121 H          -5.7545    3.8820   -3.7683 H       1  UNL1        0.0000
    122 H          -5.6063    1.9692   -2.2273 H       1  UNL1        0.0000
    123 H          -0.3681    3.5238    1.9408 H       1  UNL1        0.0000
    124 H          -2.1624    5.0847    2.5349 H       1  UNL1        0.0000
    125 H          -2.3222    7.3060    1.4102 H       1  UNL1        0.0000
    126 H          -0.6415    7.9125   -0.3243 H       1  UNL1        0.0000
    127 H           1.1363    6.3268   -0.9379 H       1  UNL1        0.0000
    128 H           2.1211    5.8277    1.9876 H       1  UNL1        0.0000
    129 H           3.7885    5.8838    3.7997 H       1  UNL1        0.0000
    130 H           5.3373    3.9663    4.1379 H       1  UNL1        0.0000
    131 H           5.2130    2.0094    2.5953 H       1  UNL1        0.0000
    132 H           3.5748    1.9713    0.7765 H       1  UNL1        0.0000
    133 H           1.7771    4.5400   -4.5849 H       1  UNL1        0.0000
    134 H           4.1558    5.2165   -4.5701 H       1  UNL1        0.0000
    135 H           5.3822    5.3128   -2.3906 H       1  UNL1        0.0000
    136 H           4.2373    4.6637   -0.3265 H       1  UNL1        0.0000
    137 H           6.0417   -0.3127    1.2601 H       1  UNL1        0.0000
    138 H           7.2293    1.7096    0.5386 H       1  UNL1        0.0000
    139 H           6.5096    2.9255   -1.5121 H       1  UNL1        0.0000
    140 H           4.5890    2.0619   -2.8298 H       1  UNL1        0.0000
    141 H           3.4312    0.0068   -2.1291 H       1  UNL1        0.0000
    142 H           3.8277   -0.2618    2.4518 H       1  UNL1        0.0000
    143 H           4.4597   -1.0662    4.6794 H       1  UNL1        0.0000
    144 H           5.3008   -3.3920    4.9856 H       1  UNL1        0.0000
    145 H           5.5091   -4.8813    3.0014 H       1  UNL1        0.0000
    146 H           4.8645   -4.0748    0.7729 H       1  UNL1        0.0000
    147 H           6.2061   -4.2716   -3.1265 H       1  UNL1        0.0000
    148 H           4.2903   -5.8026   -3.4061 H       1  UNL1        0.0000
    149 H           2.2087   -5.4084   -2.0571 H       1  UNL1        0.0000
    150 H           2.0856   -3.4813   -0.5776 H       1  UNL1        0.0000
    151 H           0.1353   -4.6048   -3.3478 H       1  UNL1        0.0000
    152 H          -0.2580   -2.8861   -3.2408 H       1  UNL1        0.0000
    153 H           0.2663   -3.7546   -1.8138 H       1  UNL1        0.0000
    154 H          -6.6405    2.3516    0.1295 H       1  UNL1        0.0000
    155 H          -7.9745    1.1966    0.1862 H       1  UNL1        0.0000
    156 H          -6.8087    1.2842    1.5132 H       1  UNL1        0.0000
    157 H           0.0477    2.9488   -3.2019 H       1  UNL1        0.0000
    158 H          -0.3589    3.7490   -1.7000 H       1  UNL1        0.0000
    159 H          -0.3298    4.6735   -3.1911 H       1  UNL1        0.0000
    160 H           6.4628   -1.1874   -1.9827 H       1  UNL1        0.0000
    161 H           6.8078   -2.0804   -0.5087 H       1  UNL1        0.0000
    162 H           7.3431   -2.7181   -2.0645 H       1  UNL1        0.0000
@<TRIPOS>BOND
     1     1     9    1
     2     1     7    1
     3     1    11    1
     4     1    13    1
     5     1     2    1
     6     3    14    1
     7     4    15    1
     8     4     8    1
     9     5    10    1
    10     6    53    1
    11     6    12    1
    12     7     4    1
    13     8     2    1
    14     9     5    1
    15    10     2    1
    16    11     6    1
    17    12     2    1
    18    13     3    1
    19    14     2    1
    20    15    28    1
    21    15    16    1
    22    16    17   ar
    23    16    21   ar
    24    17    18   ar
    25    18    96    1
    26    18    19   ar
    27    19    97    1
    28    20    19   ar
    29    20    98    1
    30    21    20   ar
    31    22    23   ar
    32    22    15    1
    33    23   100    1
    34    24   101    1
    35    24    23   ar
    36    25    24   ar
    37    26    25   ar
    38    26    27   ar
    39    27    22   ar
    40    28    33   ar
    41    29    30   ar
    42    29    28   ar
    43    30    31   ar
    44    31   106    1
    45    31    32   ar
    46    32   107    1
    47    33    32   ar
    48    33   108    1
    49    34     5    1
    50    34    35    1
    51    35    36   ar
    52    35    40   ar
    53    36    37   ar
    54    37   110    1
    55    37    38   ar
    56    38   111    1
    57    39    38   ar
    58    39   112    1
    59    40    39   ar
    60    41    42   ar
    61    41    34    1
    62    42    92    1
    63    43   114    1
    64    43    42   ar
    65    44    43   ar
    66    45    44   ar
    67    45    46   ar
    68    46    41   ar
    69    47    48   ar
    70    47    34    1
    71    48   118    1
    72    49   119    1
    73    49    48   ar
    74    50    49   ar
    75    51    50   ar
    76    51    52   ar
    77    52    47   ar
    78    53    54    1
    79    53    60    1
    80    54    55   ar
    81    55    56   ar
    82    55   123    1
    83    56   124    1
    84    57   125    1
    85    57    56   ar
    86    58    57   ar
    87    59    58   ar
    88    59    54   ar
    89    60    65   ar
    90    60    61   ar
    91    61    62   ar
    92    62    63   ar
    93    62   129    1
    94    63   130    1
    95    64   131    1
    96    64    63   ar
    97    65    64   ar
    98    66    53    1
    99    67    66   ar
   100    68    69   ar
   101    68    67   ar
   102    69    70   ar
   103    70   135    1
   104    70    71   ar
   105    71    66   ar
   106    71   136    1
   107    72     3    1
   108    72    79    1
   109    73    72    1
   110    73    74   ar
   111    74   137    1
   112    75    74   ar
   113    75   138    1
   114    76    75   ar
   115    77    78   ar
   116    77    76   ar
   117    78    73   ar
   118    79    84   ar
   119    79    80   ar
   120    80    81   ar
   121    81    82   ar
   122    81   143    1
   123    82   144    1
   124    83   145    1
   125    83    82   ar
   126    84    83   ar
   127    85    72    1
   128    86    94    1
   129    86    85   ar
   130    87    86   ar
   131    88    87   ar
   132    88    89   ar
   133    89    90   ar
   134    90    85   ar
   135    90   150    1
   136    91    27    1
   137    91   153    1
   138    92   156    1
   139    93    67    1
   140    93   158    1
   141    94   161    1
   142    95    17    1
   143    99    21    1
   144   102    25    1
   145   103    26    1
   146   104    29    1
   147   105    30    1
   148   109    36    1
   149   113    40    1
   150   115    44    1
   151   116    45    1
   152   117    46    1
   153   120    50    1
   154   121    51    1
   155   122    52    1
   156   126    58    1
   157   127    59    1
   158   128    61    1
   159   132    65    1
   160   133    68    1
   161   134    69    1
   162   139    76    1
   163   140    77    1
   164   141    78    1
   165   142    80    1
   166   146    84    1
   167   147    87    1
   168   148    88    1
   169   149    89    1
   170   151    91    1
   171   152    91    1
   172   154    92    1
   173   155    92    1
   174   157    93    1
   175   159    93    1
   176   160    94    1
   177   162    94    1
