@<TRIPOS>MOLECULE
RhRh_ACB4_19_sp
 114 129 0 0 0
SMALL
GASTEIGER

@<TRIPOS>ATOM
      1 Rh         -0.3720    0.5765   -1.1626 Rh      1  UNL1        0.0000
      2 Rh         -0.4360   -0.4849    0.9833 Rh      1  UNL1        0.0000
      3 C           2.0953    0.7475    0.2944 C.3     1  UNL1        0.0000
      4 C          -2.9360   -0.5293   -0.4477 C.3     1  UNL1        0.0000
      5 C          -1.0250    2.3355    1.0383 C.3     1  UNL1        0.0000
      6 C           0.3259   -2.2238   -1.1653 C.3     1  UNL1        0.0000
      7 O           0.1962   -1.2300   -1.9490 O.3     1  UNL1        0.0000
      8 O           0.0313   -2.2543    0.0663 O.3     1  UNL1        0.0000
      9 O          -2.3625    0.1139   -1.3768 O.3     1  UNL1        0.0000
     10 O          -2.4167   -0.8890    0.6571 O.3     1  UNL1        0.0000
     11 O          -0.8782    2.3347   -0.2248 O.3     1  UNL1        0.0000
     12 O          -0.9213    1.3320    1.8075 O.3     1  UNL1        0.0000
     13 O           1.5954    1.0351   -0.8403 O.3     1  UNL1        0.0000
     14 O           1.5557    0.0300    1.1893 O.3     1  UNL1        0.0000
     15 N           2.1432   -3.0674   -2.4749 N.am    1  UNL1        0.0000
     16 N          -4.6876   -2.1078    0.0714 N.am    1  UNL1        0.0000
     17 N          -1.5453    4.6686    0.6703 N.am    1  UNL1        0.0000
     18 N           4.0063    0.8150    1.8008 N.am    1  UNL1        0.0000
     19 C           0.9179   -3.4824   -1.8049 C.3     1  UNL1        0.0000
     20 C          -0.1639   -4.2733   -2.6016 C.3     1  UNL1        0.0000
     21 C          -0.3653   -5.1566   -1.3451 C.3     1  UNL1        0.0000
     22 C           1.0169   -4.6813   -0.8307 C.3     1  UNL1        0.0000
     23 C           2.3702   -2.9265   -3.8585 C.2     1  UNL1        0.0000
     24 C           3.7001   -2.2531   -3.9724 C.ar    1  UNL1        0.0000
     25 C           4.4269   -1.9086   -5.1009 C.ar    1  UNL1        0.0000
     26 C           5.6543   -1.2632   -4.9021 C.ar    1  UNL1        0.0000
     27 C           6.1242   -0.9801   -3.6134 C.ar    1  UNL1        0.0000
     28 C           5.3847   -1.3309   -2.4763 C.ar    1  UNL1        0.0000
     29 C           4.1709   -1.9681   -2.6899 C.ar    1  UNL1        0.0000
     30 C           3.1530   -2.4386   -1.7167 C.2     1  UNL1        0.0000
     31 C          -4.4095   -0.8591   -0.6342 C.3     1  UNL1        0.0000
     32 C          -4.9699   -0.8633   -2.0843 C.3     1  UNL1        0.0000
     33 C          -6.1812   -0.0292   -1.6013 C.3     1  UNL1        0.0000
     34 C          -5.3837    0.3285   -0.3250 C.3     1  UNL1        0.0000
     35 C          -3.9871   -3.2618   -0.3377 C.2     1  UNL1        0.0000
     36 C          -4.2497   -4.3015    0.6893 C.ar    1  UNL1        0.0000
     37 C          -3.8501   -5.6280    0.7515 C.ar    1  UNL1        0.0000
     38 C          -4.2360   -6.3612    1.8802 C.ar    1  UNL1        0.0000
     39 C          -4.9938   -5.7729    2.9006 C.ar    1  UNL1        0.0000
     40 C          -5.3906   -4.4318    2.8264 C.ar    1  UNL1        0.0000
     41 C          -5.0041   -3.7158    1.7047 C.ar    1  UNL1        0.0000
     42 C          -5.2497   -2.2850    1.3548 C.2     1  UNL1        0.0000
     43 C          -1.3295    3.6720    1.7009 C.3     1  UNL1        0.0000
     44 C          -0.2957    4.0159    2.8247 C.3     1  UNL1        0.0000
     45 C          -1.3091    3.5124    3.8815 C.3     1  UNL1        0.0000
     46 C          -2.4224    3.5701    2.8075 C.3     1  UNL1        0.0000
     47 C          -0.4931    5.3165   -0.0053 C.2     1  UNL1        0.0000
     48 C          -1.1137    5.9558   -1.2002 C.ar    1  UNL1        0.0000
     49 C          -0.5524    6.7734   -2.1686 C.ar    1  UNL1        0.0000
     50 C          -1.3857    7.2039   -3.2085 C.ar    1  UNL1        0.0000
     51 C          -2.7308    6.8176   -3.2647 C.ar    1  UNL1        0.0000
     52 C          -3.2866    5.9882   -2.2829 C.ar    1  UNL1        0.0000
     53 C          -2.4539    5.5709   -1.2562 C.ar    1  UNL1        0.0000
     54 C          -2.7273    4.6749   -0.0984 C.2     1  UNL1        0.0000
     55 C           3.4206    1.4245    0.6241 C.3     1  UNL1        0.0000
     56 C           3.2230    2.9821    0.6821 C.3     1  UNL1        0.0000
     57 C           3.7996    3.0875   -0.7484 C.3     1  UNL1        0.0000
     58 C           4.3457    1.6461   -0.6080 C.3     1  UNL1        0.0000
     59 C           4.9078   -0.2650    1.7757 C.2     1  UNL1        0.0000
     60 C           5.0166   -0.7317    3.1871 C.ar    1  UNL1        0.0000
     61 C           5.7857   -1.7477    3.7317 C.ar    1  UNL1        0.0000
     62 C           5.6761   -1.9686    5.1102 C.ar    1  UNL1        0.0000
     63 C           4.8246   -1.1881    5.9021 C.ar    1  UNL1        0.0000
     64 C           4.0545   -0.1617    5.3413 C.ar    1  UNL1        0.0000
     65 C           4.1676    0.0450    3.9754 C.ar    1  UNL1        0.0000
     66 C           3.4861    1.0336    3.0938 C.2     1  UNL1        0.0000
     67 H          -1.0112   -3.6947   -2.9703 H       1  UNL1        0.0000
     68 H           0.2933   -4.8129   -3.4293 H       1  UNL1        0.0000
     69 H          -0.4972   -6.2287   -1.5098 H       1  UNL1        0.0000
     70 H          -1.1814   -4.7809   -0.7257 H       1  UNL1        0.0000
     71 H           1.8232   -5.3444   -1.1542 H       1  UNL1        0.0000
     72 H           1.1335   -4.4365    0.2236 H       1  UNL1        0.0000
     73 H           7.0786   -0.4767   -3.4954 H       1  UNL1        0.0000
     74 H           5.7236   -1.1128   -1.4694 H       1  UNL1        0.0000
     75 H          -4.3028   -0.2995   -2.7366 H       1  UNL1        0.0000
     76 H          -5.1500   -1.8480   -2.5155 H       1  UNL1        0.0000
     77 H          -6.5007    0.8004   -2.2358 H       1  UNL1        0.0000
     78 H          -7.0491   -0.6544   -1.3744 H       1  UNL1        0.0000
     79 H          -5.8862    0.2981    0.6371 H       1  UNL1        0.0000
     80 H          -4.8410    1.2716   -0.4288 H       1  UNL1        0.0000
     81 H          -3.9419   -7.4021    1.9691 H       1  UNL1        0.0000
     82 H          -5.2741   -6.3676    3.7643 H       1  UNL1        0.0000
     83 H          -5.9720   -3.9616    3.6120 H       1  UNL1        0.0000
     84 H           0.6681    3.5101    2.7670 H       1  UNL1        0.0000
     85 H          -0.1370    5.0939    2.8638 H       1  UNL1        0.0000
     86 H          -1.0941    2.4897    4.1933 H       1  UNL1        0.0000
     87 H          -1.4470    4.1395    4.7653 H       1  UNL1        0.0000
     88 H          -2.9968    4.4973    2.8421 H       1  UNL1        0.0000
     89 H          -3.1077    2.7271    2.7249 H       1  UNL1        0.0000
     90 H           0.4927    7.0587   -2.1170 H       1  UNL1        0.0000
     91 H          -0.9838    7.8440   -3.9874 H       1  UNL1        0.0000
     92 H          -3.3493    7.1647   -4.0862 H       1  UNL1        0.0000
     93 H          -4.3246    5.6757   -2.3184 H       1  UNL1        0.0000
     94 H           2.2123    3.3507    0.8502 H       1  UNL1        0.0000
     95 H           3.8852    3.4033    1.4400 H       1  UNL1        0.0000
     96 H           3.0118    3.1575   -1.4991 H       1  UNL1        0.0000
     97 H           4.5348    3.8768   -0.9210 H       1  UNL1        0.0000
     98 H           5.3910    1.6177   -0.3013 H       1  UNL1        0.0000
     99 H           4.1972    0.9582   -1.4389 H       1  UNL1        0.0000
    100 H           6.4384   -2.3461    3.1055 H       1  UNL1        0.0000
    101 H           3.3904    0.4498    5.9424 H       1  UNL1        0.0000
    102 O          -5.8199   -1.4541    2.0302 O.2     1  UNL1        0.0000
    103 O          -3.2865   -3.3268   -1.3302 O.2     1  UNL1        0.0000
    104 O           0.6737    5.3231    0.3330 O.2     1  UNL1        0.0000
    105 O          -3.7338    4.0444    0.1569 O.2     1  UNL1        0.0000
    106 O           2.6636    1.8743    3.3948 O.2     1  UNL1        0.0000
    107 O           5.4889   -0.6957    0.7999 O.2     1  UNL1        0.0000
    108 O           3.1183   -2.3100   -0.5086 O.2     1  UNL1        0.0000
    109 O           1.6380   -3.2854   -4.7570 O.2     1  UNL1        0.0000
    110 H           4.0501   -2.1301   -6.0936 H       1  UNL1        0.0000
    111 H           6.2520   -0.9745   -5.7610 H       1  UNL1        0.0000
    112 H          -3.2593   -6.0705   -0.0428 H       1  UNL1        0.0000
    113 H           6.2580   -2.7585    5.5745 H       1  UNL1        0.0000
    114 H           4.7609   -1.3851    6.9676 H       1  UNL1        0.0000
@<TRIPOS>BOND
     1     1    13    1
     2     1    11    1
     3     1     2    1
     4     2    14    1
     5     2    12    1
     6     3    55    1
     7     3    14    1
     8     4    10    1
     9     5    43    1
    10     5    12    1
    11     6     8    1
    12     7     6    1
    13     7     1    1
    14     8     2    1
    15     9     1    1
    16     9     4    1
    17    10     2    1
    18    11     5    1
    19    13     3    1
    20    15    19    1
    21    15    30   am
    22    16    42   am
    23    17    43    1
    24    18    66   am
    25    19     6    1
    26    19    22    1
    27    20    19    1
    28    20    21    1
    29    21    22    1
    30    21    70    1
    31    22    72    1
    32    23    15   am
    33    24    23    1
    34    24    29   ar
    35    25    26   ar
    36    25    24   ar
    37    26    27   ar
    38    27    73    1
    39    27    28   ar
    40    28    74    1
    41    29    28   ar
    42    29    30    1
    43    30   108    2
    44    31     4    1
    45    31    34    1
    46    31    16    1
    47    32    33    1
    48    32    31    1
    49    33    78    1
    50    33    34    1
    51    34    79    1
    52    35    16   am
    53    35    36    1
    54    36    37   ar
    55    36    41   ar
    56    37    38   ar
    57    38    81    1
    58    38    39   ar
    59    39    82    1
    60    40    39   ar
    61    40    83    1
    62    41    40   ar
    63    42    41    1
    64    42   102    2
    65    43    46    1
    66    43    44    1
    67    44    85    1
    68    44    45    1
    69    45    86    1
    70    45    87    1
    71    46    88    1
    72    46    45    1
    73    47   104    2
    74    47    17   am
    75    48    47    1
    76    49    90    1
    77    49    48   ar
    78    50    49   ar
    79    51    50   ar
    80    51    52   ar
    81    52    53   ar
    82    53    48   ar
    83    53    54    1
    84    54   105    2
    85    54    17   am
    86    55    56    1
    87    55    18    1
    88    56    94    1
    89    56    95    1
    90    57    58    1
    91    57    56    1
    92    58    98    1
    93    58    55    1
    94    59    18   am
    95    59    60    1
    96    60    61   ar
    97    60    65   ar
    98    61    62   ar
    99    62   113    1
   100    62    63   ar
   101    63   114    1
   102    64    63   ar
   103    64   101    1
   104    65    64   ar
   105    66   106    2
   106    66    65    1
   107    67    20    1
   108    68    20    1
   109    69    21    1
   110    71    22    1
   111    75    32    1
   112    76    32    1
   113    77    33    1
   114    80    34    1
   115    84    44    1
   116    89    46    1
   117    91    50    1
   118    92    51    1
   119    93    52    1
   120    96    57    1
   121    97    57    1
   122    99    58    1
   123   100    61    1
   124   103    35    2
   125   107    59    2
   126   109    23    2
   127   110    25    1
   128   111    26    1
   129   112    37    1
