@<TRIPOS>MOLECULE
RhRh_SS-diOBn-phthal-cat27_tBuCN_11_ONIOM_sp
 230 245 0 0 0
SMALL
GASTEIGER

@<TRIPOS>ATOM
      1 C          -1.8600   -2.8177   -1.3332 C.3     1  UNL1        0.0000
      2 C          -1.2895   -2.7567    2.2703 C.3     1  UNL1        0.0000
      3 C           2.3527   -1.8878    1.6459 C.3     1  UNL1        0.0000
      4 C           1.7036   -2.0002   -1.9715 C.3     1  UNL1        0.0000
      5 O          -1.1408   -1.5539    1.8737 O.3     1  UNL1        0.0000
      6 O          -0.7091   -3.7898    1.8233 O.3     1  UNL1        0.0000
      7 O           1.6965   -0.8377    1.3433 O.3     1  UNL1        0.0000
      8 O           2.0756   -3.0846    1.3321 O.3     1  UNL1        0.0000
      9 O           1.1791   -0.9387   -1.4842 O.3     1  UNL1        0.0000
     10 O           1.5624   -3.1856   -1.5561 O.3     1  UNL1        0.0000
     11 O          -1.6100   -1.6228   -0.9565 O.3     1  UNL1        0.0000
     12 O          -1.2104   -3.8635   -1.0395 O.3     1  UNL1        0.0000
     13 N          -3.4688   -2.0639    3.1276 N.am    1  UNL1        0.0000
     14 N           3.7254   -0.2896    2.9511 N.am    1  UNL1        0.0000
     15 N           3.6659   -0.7826   -2.7994 N.am    1  UNL1        0.0000
     16 N          -3.0739   -1.7057   -3.1174 N.am    1  UNL1        0.0000
     17 C          -4.1209   -2.0926    1.8938 C.2     1  UNL1        0.0000
     18 C          -3.8659   -0.9909    3.9322 C.2     1  UNL1        0.0000
     19 C           2.7287    0.3066    3.7476 C.2     1  UNL1        0.0000
     20 C           4.7256    0.6118    2.5940 C.2     1  UNL1        0.0000
     21 C           4.4816   -0.9502   -1.6759 C.2     1  UNL1        0.0000
     22 C           3.8215    0.4777   -3.3887 C.2     1  UNL1        0.0000
     23 C          -1.9011   -1.3039   -3.7740 C.2     1  UNL1        0.0000
     24 C          -3.9989   -0.6551   -3.0177 C.2     1  UNL1        0.0000
     25 C          -2.2702   -2.8463    3.4670 C.3     1  UNL1        0.0000
     26 C          -2.6010   -4.2567    4.0394 C.3     1  UNL1        0.0000
     27 C          -1.3160   -4.9388    4.5685 C.3     1  UNL1        0.0000
     28 C          -3.5696   -4.1064    5.2364 C.3     1  UNL1        0.0000
     29 C          -3.2717   -5.1749    2.9928 C.3     1  UNL1        0.0000
     30 C           3.6950   -1.6360    2.3631 C.3     1  UNL1        0.0000
     31 C           4.1856   -2.7445    3.3504 C.3     1  UNL1        0.0000
     32 C           5.5053   -2.2896    4.0195 C.3     1  UNL1        0.0000
     33 C           4.4772   -4.0691    2.5958 C.3     1  UNL1        0.0000
     34 C           3.1513   -3.0273    4.4618 C.3     1  UNL1        0.0000
     35 C           2.5795   -1.6868   -3.2111 C.3     1  UNL1        0.0000
     36 C           3.0758   -2.8832   -4.0777 C.3     1  UNL1        0.0000
     37 C           3.8430   -2.3361   -5.3045 C.3     1  UNL1        0.0000
     38 C           4.0253   -3.8284   -3.3069 C.3     1  UNL1        0.0000
     39 C           1.8728   -3.6965   -4.6092 C.3     1  UNL1        0.0000
     40 C          -3.1458   -2.8487   -2.1906 C.3     1  UNL1        0.0000
     41 C          -3.5444   -4.1819   -2.8801 C.3     1  UNL1        0.0000
     42 C          -2.4605   -4.6794   -3.8608 C.3     1  UNL1        0.0000
     43 C          -3.8145   -5.2758   -1.8194 C.3     1  UNL1        0.0000
     44 C          -4.8560   -3.9686   -3.6710 C.3     1  UNL1        0.0000
     45 C           4.8832    1.2479   -2.5758 C.3     1  UNL1        0.0000
     46 C           5.5387    0.1644   -1.7102 C.3     1  UNL1        0.0000
     47 C           4.5808    1.8417    3.5062 C.3     1  UNL1        0.0000
     48 C           3.0947    1.7958    3.8992 C.3     1  UNL1        0.0000
     49 C          -5.0016   -0.2448    3.2151 C.3     1  UNL1        0.0000
     50 C          -5.2237   -1.0228    1.8985 C.3     1  UNL1        0.0000
     51 C          -2.0703    0.1668   -4.1659 C.3     1  UNL1        0.0000
     52 C          -3.5687    0.4269   -4.0206 C.3     1  UNL1        0.0000
     53 C          -4.9494    2.3022   -4.0078 C.3     1  UNL1        0.0000
     54 C          -0.3668    1.0318   -5.5145 C.3     1  UNL1        0.0000
     55 C          -4.9808    2.0199    3.8355 C.3     1  UNL1        0.0000
     56 C          -7.5306   -0.9350    1.4956 C.3     1  UNL1        0.0000
     57 C           6.2741    3.2946    2.7932 C.3     1  UNL1        0.0000
     58 C           2.5405    3.5302    5.3705 C.3     1  UNL1        0.0000
     59 C           7.7696   -0.6090   -1.6275 C.3     1  UNL1        0.0000
     60 C           3.9778    3.3872   -2.2668 C.3     1  UNL1        0.0000
     61 C          -5.1535    3.6270   -3.3326 C.ar    1  UNL1        0.0000
     62 C          -4.9277    4.8264   -4.0290 C.ar    1  UNL1        0.0000
     63 C          -5.5306    3.6762   -1.9800 C.ar    1  UNL1        0.0000
     64 C          -5.0746    6.0555   -3.3792 C.ar    1  UNL1        0.0000
     65 C          -5.6770    4.9079   -1.3348 C.ar    1  UNL1        0.0000
     66 C          -5.4486    6.0962   -2.0333 C.ar    1  UNL1        0.0000
     67 C          -0.4346    2.4928   -5.1478 C.ar    1  UNL1        0.0000
     68 C           0.3311    2.9982   -4.0845 C.ar    1  UNL1        0.0000
     69 C          -1.2830    3.3588   -5.8577 C.ar    1  UNL1        0.0000
     70 C           0.2545    4.3524   -3.7439 C.ar    1  UNL1        0.0000
     71 C          -1.3681    4.7087   -5.5034 C.ar    1  UNL1        0.0000
     72 C          -0.5989    5.2054   -4.4480 C.ar    1  UNL1        0.0000
     73 C           3.5033    4.3844   -1.2407 C.ar    1  UNL1        0.0000
     74 C           3.3550    4.0465    0.1192 C.ar    1  UNL1        0.0000
     75 C           3.2269    5.6996   -1.6493 C.ar    1  UNL1        0.0000
     76 C           2.9589    5.0135    1.0460 C.ar    1  UNL1        0.0000
     77 C           2.8149    6.6589   -0.7193 C.ar    1  UNL1        0.0000
     78 C           2.6847    6.3169    0.6284 C.ar    1  UNL1        0.0000
     79 C           7.6558   -1.9829   -1.0251 C.ar    1  UNL1        0.0000
     80 C           7.7107   -2.1615    0.3670 C.ar    1  UNL1        0.0000
     81 C           7.5277   -3.1055   -1.8592 C.ar    1  UNL1        0.0000
     82 C           7.6441   -3.4473    0.9129 C.ar    1  UNL1        0.0000
     83 C           7.4361   -4.3867   -1.3077 C.ar    1  UNL1        0.0000
     84 C           7.4966   -4.5577    0.0775 C.ar    1  UNL1        0.0000
     85 C           1.0790    3.8177    5.1369 C.ar    1  UNL1        0.0000
     86 C           0.0948    3.0699    5.8062 C.ar    1  UNL1        0.0000
     87 C           0.6850    4.8675    4.2900 C.ar    1  UNL1        0.0000
     88 C          -1.2605    3.3634    5.6231 C.ar    1  UNL1        0.0000
     89 C          -0.6705    5.1606    4.1133 C.ar    1  UNL1        0.0000
     90 C          -1.6421    4.4131    4.7836 C.ar    1  UNL1        0.0000
     91 C           6.5645    3.9616    1.4794 C.ar    1  UNL1        0.0000
     92 C           6.2650    5.3216    1.2975 C.ar    1  UNL1        0.0000
     93 C           7.0960    3.2244    0.4080 C.ar    1  UNL1        0.0000
     94 C           6.4893    5.9325    0.0597 C.ar    1  UNL1        0.0000
     95 C           7.3153    3.8374   -0.8289 C.ar    1  UNL1        0.0000
     96 C           7.0120    5.1905   -1.0031 C.ar    1  UNL1        0.0000
     97 C          -7.6655   -0.8019    0.0020 C.ar    1  UNL1        0.0000
     98 C          -7.8075   -1.9469   -0.7993 C.ar    1  UNL1        0.0000
     99 C          -7.7074    0.4678   -0.5983 C.ar    1  UNL1        0.0000
    100 C          -7.9948   -1.8216   -2.1797 C.ar    1  UNL1        0.0000
    101 C          -7.9042    0.5889   -1.9770 C.ar    1  UNL1        0.0000
    102 C          -8.0462   -0.5546   -2.7678 C.ar    1  UNL1        0.0000
    103 C          -6.3620    2.5076    3.4935 C.ar    1  UNL1        0.0000
    104 C          -6.5971    3.1307    2.2570 C.ar    1  UNL1        0.0000
    105 C          -7.4303    2.3203    4.3856 C.ar    1  UNL1        0.0000
    106 C          -7.8839    3.5590    1.9176 C.ar    1  UNL1        0.0000
    107 C          -8.7163    2.7488    4.0416 C.ar    1  UNL1        0.0000
    108 C          -8.9430    3.3668    2.8085 C.ar    1  UNL1        0.0000
    109 H          -1.7957   -2.2567    4.2622 H       1  UNL1        0.0000
    110 H          -1.5650   -5.8704    5.1215 H       1  UNL1        0.0000
    111 H          -0.7698   -4.2637    5.2623 H       1  UNL1        0.0000
    112 H          -0.6293   -5.2302    3.7497 H       1  UNL1        0.0000
    113 H          -4.5401   -3.6709    4.9156 H       1  UNL1        0.0000
    114 H          -3.1306   -3.4484    6.0172 H       1  UNL1        0.0000
    115 H          -3.7848   -5.0944    5.6986 H       1  UNL1        0.0000
    116 H          -4.2637   -4.7779    2.6931 H       1  UNL1        0.0000
    117 H          -3.4371   -6.1884    3.4181 H       1  UNL1        0.0000
    118 H          -2.6489   -5.2923    2.0838 H       1  UNL1        0.0000
    119 H           4.4147   -1.5766    1.5339 H       1  UNL1        0.0000
    120 H           6.2666   -2.0384    3.2513 H       1  UNL1        0.0000
    121 H           5.9177   -3.0880    4.6738 H       1  UNL1        0.0000
    122 H           5.3462   -1.3935    4.6566 H       1  UNL1        0.0000
    123 H           4.9924   -3.8749    1.6330 H       1  UNL1        0.0000
    124 H           3.5511   -4.6427    2.3876 H       1  UNL1        0.0000
    125 H           5.1217   -4.7426    3.2010 H       1  UNL1        0.0000
    126 H           2.1512   -3.2541    4.0358 H       1  UNL1        0.0000
    127 H           3.0595   -2.1653    5.1530 H       1  UNL1        0.0000
    128 H           3.4682   -3.9012    5.0714 H       1  UNL1        0.0000
    129 H           1.9357   -1.0626   -3.8382 H       1  UNL1        0.0000
    130 H           4.7606   -1.7923   -4.9927 H       1  UNL1        0.0000
    131 H           3.2047   -1.6393   -5.8900 H       1  UNL1        0.0000
    132 H           4.1566   -3.1639   -5.9771 H       1  UNL1        0.0000
    133 H           4.9468   -3.2966   -3.0008 H       1  UNL1        0.0000
    134 H           4.3368   -4.6761   -3.9547 H       1  UNL1        0.0000
    135 H           3.5499   -4.2614   -2.4058 H       1  UNL1        0.0000
    136 H           1.3001   -4.1746   -3.7895 H       1  UNL1        0.0000
    137 H           2.2165   -4.5083   -5.2864 H       1  UNL1        0.0000
    138 H           1.1840   -3.0430   -5.1857 H       1  UNL1        0.0000
    139 H          -3.9375   -2.5752   -1.4811 H       1  UNL1        0.0000
    140 H          -2.3423   -3.9766   -4.7115 H       1  UNL1        0.0000
    141 H          -2.7463   -5.6662   -4.2849 H       1  UNL1        0.0000
    142 H          -1.4785   -4.7998   -3.3600 H       1  UNL1        0.0000
    143 H          -4.5422   -4.9164   -1.0598 H       1  UNL1        0.0000
    144 H          -2.8883   -5.5876   -1.2979 H       1  UNL1        0.0000
    145 H          -4.2379   -6.1870   -2.2949 H       1  UNL1        0.0000
    146 H          -4.7185   -3.2241   -4.4843 H       1  UNL1        0.0000
    147 H          -5.6629   -3.6059   -2.9986 H       1  UNL1        0.0000
    148 H          -5.1955   -4.9180   -4.1391 H       1  UNL1        0.0000
    149 H           5.6344    1.6858   -3.2428 H       1  UNL1        0.0000
    150 H           5.7148    0.5364   -0.6968 H       1  UNL1        0.0000
    151 H           5.1498    1.6384    4.4287 H       1  UNL1        0.0000
    152 H           2.5197    2.3325    3.1271 H       1  UNL1        0.0000
    153 H          -5.9080   -0.3187    3.8316 H       1  UNL1        0.0000
    154 H          -5.0448   -0.3574    1.0432 H       1  UNL1        0.0000
    155 H          -1.5888    0.7416   -3.3579 H       1  UNL1        0.0000
    156 H          -4.0287    0.1991   -4.9949 H       1  UNL1        0.0000
    157 H          -4.8812    2.4432   -5.1105 H       1  UNL1        0.0000
    158 H          -5.8223    1.6463   -3.7931 H       1  UNL1        0.0000
    159 H           0.3458    0.4733   -4.8660 H       1  UNL1        0.0000
    160 H           0.0245    0.9524   -6.5503 H       1  UNL1        0.0000
    161 H          -4.9235    1.6272    4.8775 H       1  UNL1        0.0000
    162 H          -4.2854    2.8831    3.7924 H       1  UNL1        0.0000
    163 H          -8.4546   -1.4151    1.8803 H       1  UNL1        0.0000
    164 H          -7.4777    0.0619    1.9913 H       1  UNL1        0.0000
    165 H           6.5975    3.9592    3.6230 H       1  UNL1        0.0000
    166 H           6.8819    2.3629    2.8780 H       1  UNL1        0.0000
    167 H           2.7782    3.8188    6.4157 H       1  UNL1        0.0000
    168 H           3.1957    4.1562    4.7210 H       1  UNL1        0.0000
    169 H           8.6802   -0.5904   -2.2622 H       1  UNL1        0.0000
    170 H           7.9278    0.1762   -0.8537 H       1  UNL1        0.0000
    171 H           4.8938    3.8047   -2.7432 H       1  UNL1        0.0000
    172 H           3.1897    3.2716   -3.0403 H       1  UNL1        0.0000
    173 H          -4.6246    4.8112   -5.0686 H       1  UNL1        0.0000
    174 H          -5.6952    2.7618   -1.4234 H       1  UNL1        0.0000
    175 H          -4.8936    6.9766   -3.9179 H       1  UNL1        0.0000
    176 H          -5.9602    4.9433   -0.2919 H       1  UNL1        0.0000
    177 H          -5.5587    7.0485   -1.5310 H       1  UNL1        0.0000
    178 H           0.9719    2.3429   -3.5091 H       1  UNL1        0.0000
    179 H          -1.8858    2.9851   -6.6761 H       1  UNL1        0.0000
    180 H           0.8399    4.7363   -2.9204 H       1  UNL1        0.0000
    181 H          -2.0313    5.3695   -6.0465 H       1  UNL1        0.0000
    182 H          -0.6668    6.2501   -4.1733 H       1  UNL1        0.0000
    183 H           3.5546    3.0439    0.4740 H       1  UNL1        0.0000
    184 H           3.3344    5.9820   -2.6894 H       1  UNL1        0.0000
    185 H           2.8664    4.7487    2.0888 H       1  UNL1        0.0000
    186 H           2.6033    7.6696   -1.0431 H       1  UNL1        0.0000
    187 H           2.3725    7.0612    1.3493 H       1  UNL1        0.0000
    188 H           7.8168   -1.3104    1.0279 H       1  UNL1        0.0000
    189 H           7.4940   -2.9863   -2.9352 H       1  UNL1        0.0000
    190 H           7.7006   -3.5847    1.9845 H       1  UNL1        0.0000
    191 H           7.3252   -5.2471   -1.9548 H       1  UNL1        0.0000
    192 H           7.4322   -5.5504    0.5038 H       1  UNL1        0.0000
    193 H           0.3775    2.2632    6.4712 H       1  UNL1        0.0000
    194 H           1.4231    5.4759    3.7857 H       1  UNL1        0.0000
    195 H          -2.0147    2.7817    6.1373 H       1  UNL1        0.0000
    196 H          -0.9676    5.9709    3.4600 H       1  UNL1        0.0000
    197 H          -2.6903    4.6447    4.6478 H       1  UNL1        0.0000
    198 H           5.8438    5.9026    2.1087 H       1  UNL1        0.0000
    199 H           7.3295    2.1747    0.5258 H       1  UNL1        0.0000
    200 H           6.2464    6.9779   -0.0788 H       1  UNL1        0.0000
    201 H           7.7127    3.2610   -1.6544 H       1  UNL1        0.0000
    202 H           7.1754    5.6621   -1.9633 H       1  UNL1        0.0000
    203 H          -7.7823   -2.9336   -0.3536 H       1  UNL1        0.0000
    204 H          -7.6032    1.3632   -0.0004 H       1  UNL1        0.0000
    205 H          -8.1062   -2.7064   -2.7928 H       1  UNL1        0.0000
    206 H          -7.9486    1.5700   -2.4317 H       1  UNL1        0.0000
    207 H          -8.1932   -0.4588   -3.8357 H       1  UNL1        0.0000
    208 H          -5.7856    3.2727    1.5545 H       1  UNL1        0.0000
    209 H          -7.2713    1.8352    5.3405 H       1  UNL1        0.0000
    210 H          -8.0618    4.0324    0.9608 H       1  UNL1        0.0000
    211 H          -9.5380    2.5989    4.7298 H       1  UNL1        0.0000
    212 H          -9.9395    3.6952    2.5429 H       1  UNL1        0.0000
    213 O           5.5748    0.4157    1.7465 O.2     1  UNL1        0.0000
    214 O           1.7601   -0.2462    4.2039 O.2     1  UNL1        0.0000
    215 O           3.1802    0.8845   -4.3341 O.2     1  UNL1        0.0000
    216 O           4.3701   -1.8439   -0.8620 O.2     1  UNL1        0.0000
    217 O          -3.3640   -0.6991    4.9947 O.2     1  UNL1        0.0000
    218 O          -3.8486   -2.8429    0.9818 O.2     1  UNL1        0.0000
    219 O          -0.9087   -1.9827   -3.9212 O.2     1  UNL1        0.0000
    220 O          -4.9446   -0.6308   -2.2628 O.2     1  UNL1        0.0000
    221 O           4.8996    3.0777    2.8950 O.3     1  UNL1        0.0000
    222 O           2.8091    2.1698    5.2343 O.3     1  UNL1        0.0000
    223 O          -1.6356    0.4586   -5.4839 O.3     1  UNL1        0.0000
    224 O          -4.5690    1.0787    2.8964 O.3     1  UNL1        0.0000
    225 O          -6.4507   -1.7506    1.8342 O.3     1  UNL1        0.0000
    226 O          -3.7704    1.7415   -3.5353 O.3     1  UNL1        0.0000
    227 O           6.6752   -0.3287   -2.4424 O.3     1  UNL1        0.0000
    228 O           4.2508    2.1574   -1.6742 O.3     1  UNL1        0.0000
    229 Rh          0.0032   -1.1257    0.2039 Rh      1  UNL1        0.0000
    230 Rh          0.4618   -3.5917    0.1408 Rh      1  UNL1        0.0000
@<TRIPOS>BOND
     1     1    40    1
     2     1    12    1
     3     1    11    1
     4     2    25    1
     5     3    30    1
     6     4    35    1
     7     4    10    1
     8     4     9    1
     9     5     2    1
    10     6     2    1
    11     7     3    1
    12     8     3    1
    13     9   229    1
    14    10   230    1
    15    11   229    1
    16    12   230    1
    17    13    25    1
    18    13    18   am
    19    14    19   am
    20    15    21   am
    21    16    24   am
    22    16    40    1
    23    17    50    1
    24    17    13   am
    25    18   217    2
    26    19    48    1
    27    19   214    2
    28    20    14   am
    29    20    47    1
    30    21   216    2
    31    22    15   am
    32    22    45    1
    33    23    16   am
    34    24   220    2
    35    25    26    1
    36    25   109    1
    37    26    27    1
    38    26    28    1
    39    27   110    1
    40    27   111    1
    41    28   115    1
    42    28   114    1
    43    29   117    1
    44    29    26    1
    45    30   119    1
    46    30    14    1
    47    30    31    1
    48    31    32    1
    49    31    34    1
    50    32   122    1
    51    32   121    1
    52    33   125    1
    53    33    31    1
    54    34   128    1
    55    34   127    1
    56    35   129    1
    57    35    15    1
    58    36    38    1
    59    36    35    1
    60    37   130    1
    61    37    36    1
    62    38   133    1
    63    38   135    1
    64    39    36    1
    65    39   136    1
    66    40   139    1
    67    41    40    1
    68    41    43    1
    69    42   142    1
    70    42    41    1
    71    43   144    1
    72    43   143    1
    73    44   147    1
    74    44    41    1
    75    45   149    1
    76    45    46    1
    77    45   228    1
    78    46    21    1
    79    46   150    1
    80    47    48    1
    81    47   151    1
    82    48   152    1
    83    48   222    1
    84    49   153    1
    85    49    18    1
    86    50   154    1
    87    50    49    1
    88    51    52    1
    89    51    23    1
    90    51   155    1
    91    52   156    1
    92    52   226    1
    93    52    24    1
    94    53   158    1
    95    53   226    1
    96    53    61    1
    97    54   223    1
    98    54    67    1
    99    54   159    1
   100    55   161    1
   101    56   225    1
   102    56   163    1
   103    56   164    1
   104    57   166    1
   105    57   221    1
   106    57   165    1
   107    58   167    1
   108    59    79    1
   109    59   170    1
   110    60   228    1
   111    60    73    1
   112    61    63   ar
   113    62    64   ar
   114    62    61   ar
   115    63   174    1
   116    63    65   ar
   117    64    66   ar
   118    65   176    1
   119    66   177    1
   120    66    65   ar
   121    67    68   ar
   122    68    70   ar
   123    68   178    1
   124    69    71   ar
   125    69    67   ar
   126    70   180    1
   127    71    72   ar
   128    72   182    1
   129    72    70   ar
   130    73    74   ar
   131    74   183    1
   132    74    76   ar
   133    75    73   ar
   134    75    77   ar
   135    76   185    1
   136    77    78   ar
   137    78    76   ar
   138    78   187    1
   139    79    80   ar
   140    80    82   ar
   141    80   188    1
   142    81    83   ar
   143    81    79   ar
   144    82   190    1
   145    83    84   ar
   146    84   192    1
   147    84    82   ar
   148    85    58    1
   149    85    86   ar
   150    86   193    1
   151    87    85   ar
   152    88    86   ar
   153    88   195    1
   154    89    87   ar
   155    89    90   ar
   156    90    88   ar
   157    91    57    1
   158    92    91   ar
   159    92   198    1
   160    93   199    1
   161    93    91   ar
   162    94    92   ar
   163    95    93   ar
   164    96    95   ar
   165    96    94   ar
   166    97    56    1
   167    98   203    1
   168    98    97   ar
   169    99   204    1
   170    99    97   ar
   171   100    98   ar
   172   101    99   ar
   173   102   100   ar
   174   102   101   ar
   175   103    55    1
   176   103   105   ar
   177   104   103   ar
   178   105   209    1
   179   106   104   ar
   180   106   108   ar
   181   107   105   ar
   182   107   211    1
   183   108   107   ar
   184   112    27    1
   185   113    28    1
   186   116    29    1
   187   118    29    1
   188   120    32    1
   189   123    33    1
   190   124    33    1
   191   126    34    1
   192   131    37    1
   193   132    37    1
   194   134    38    1
   195   137    39    1
   196   138    39    1
   197   140    42    1
   198   141    42    1
   199   145    43    1
   200   146    44    1
   201   148    44    1
   202   157    53    1
   203   160    54    1
   204   162    55    1
   205   168    58    1
   206   169    59    1
   207   171    60    1
   208   172    60    1
   209   173    62    1
   210   175    64    1
   211   179    69    1
   212   181    71    1
   213   184    75    1
   214   186    77    1
   215   189    81    1
   216   191    83    1
   217   194    87    1
   218   196    89    1
   219   197    90    1
   220   200    94    1
   221   201    95    1
   222   202    96    1
   223   205   100    1
   224   206   101    1
   225   207   102    1
   226   208   104    1
   227   210   106    1
   228   212   108    1
   229   213    20    2
   230   215    22    2
   231   218    17    2
   232   219    23    2
   233   221    47    1
   234   222    58    1
   235   223    51    1
   236   224    49    1
   237   224    55    1
   238   225    50    1
   239   227    46    1
   240   227    59    1
   241   229     7    1
   242   229     5    1
   243   230   229    1
   244   230     8    1
   245   230     6    1
