@<TRIPOS>MOLECULE
RhRh_ACH4_24_sp
 138 153 0 0 0
SMALL
GASTEIGER

@<TRIPOS>ATOM
      1 Rh          0.0680    0.3242   -0.9540 Rh      1  UNL1        0.0000
      2 Rh          0.9541   -0.2765    1.1825 Rh      1  UNL1        0.0000
      3 C          -0.1627   -2.4843   -0.3232 C.3     1  UNL1        0.0000
      4 C           2.8680   -0.3794   -0.9956 C.3     1  UNL1        0.0000
      5 C           1.1663    2.5323    0.5470 C.3     1  UNL1        0.0000
      6 C          -1.8408    0.4141    1.2055 C.3     1  UNL1        0.0000
      7 O          -1.6983    0.7557   -0.0103 O.3     1  UNL1        0.0000
      8 O          -0.9204    0.0100    1.9785 O.3     1  UNL1        0.0000
      9 O           0.7203    2.2388   -0.6082 O.3     1  UNL1        0.0000
     10 O           1.3959    1.7144    1.4867 O.3     1  UNL1        0.0000
     11 O           2.7899   -0.5123    0.2654 O.3     1  UNL1        0.0000
     12 O           1.9029   -0.1318   -1.7829 O.3     1  UNL1        0.0000
     13 O           0.4618   -2.2280    0.7512 O.3     1  UNL1        0.0000
     14 O          -0.5209   -1.6294   -1.1929 O.3     1  UNL1        0.0000
     15 N          -4.1864    0.4318    0.6233 N.am    1  UNL1        0.0000
     16 N           0.3995    4.7802    0.1756 N.am    1  UNL1        0.0000
     17 N           5.2077   -0.9438   -0.6050 N.am    1  UNL1        0.0000
     18 N          -1.9527   -4.1520   -0.3049 N.am    1  UNL1        0.0000
     19 C          -3.2691    0.4770    1.7903 C.3     1  UNL1        0.0000
     20 C          -3.4201    1.7577    2.6451 C.3     1  UNL1        0.0000
     21 C          -4.7554    1.8286    3.3971 C.3     1  UNL1        0.0000
     22 C          -5.0290    0.5741    4.2332 C.3     1  UNL1        0.0000
     23 C          -4.8900   -0.6886    3.3774 C.3     1  UNL1        0.0000
     24 C          -3.5153   -0.7468    2.7106 C.3     1  UNL1        0.0000
     25 C          -4.0505   -0.6459   -0.2836 C.2     1  UNL1        0.0000
     26 C          -4.8463   -0.3175   -1.4847 C.ar    1  UNL1        0.0000
     27 C          -5.0656   -1.0526   -2.6406 C.ar    1  UNL1        0.0000
     28 C          -5.8490   -0.4473   -3.6315 C.ar    1  UNL1        0.0000
     29 C          -6.3729    0.8410   -3.4576 C.ar    1  UNL1        0.0000
     30 C          -6.1275    1.5741   -2.2894 C.ar    1  UNL1        0.0000
     31 C          -5.3560    0.9659   -1.3116 C.ar    1  UNL1        0.0000
     32 C          -4.8825    1.4914    0.0030 C.2     1  UNL1        0.0000
     33 C           1.5337    4.0201    0.7477 C.3     1  UNL1        0.0000
     34 C           2.8495    4.2531   -0.0343 C.3     1  UNL1        0.0000
     35 C           4.0193    3.5265    0.6379 C.3     1  UNL1        0.0000
     36 C           4.2239    4.0291    2.0702 C.3     1  UNL1        0.0000
     37 C           2.9558    3.8288    2.9074 C.3     1  UNL1        0.0000
     38 C           1.7112    4.4218    2.2287 C.3     1  UNL1        0.0000
     39 C          -0.9154    4.3938    0.4975 C.2     1  UNL1        0.0000
     40 C          -1.8243    5.2226   -0.3298 C.ar    1  UNL1        0.0000
     41 C          -3.2077    5.2112   -0.4337 C.ar    1  UNL1        0.0000
     42 C          -3.7822    6.1256   -1.3264 C.ar    1  UNL1        0.0000
     43 C          -2.9923    7.0084   -2.0733 C.ar    1  UNL1        0.0000
     44 C          -1.5958    7.0031   -1.9608 C.ar    1  UNL1        0.0000
     45 C          -1.0348    6.0921   -1.0805 C.ar    1  UNL1        0.0000
     46 C           0.4025    5.8307   -0.7677 C.2     1  UNL1        0.0000
     47 C           4.2617   -0.4688   -1.6409 C.3     1  UNL1        0.0000
     48 C           4.2387   -1.4263   -2.8617 C.3     1  UNL1        0.0000
     49 C           5.5906   -1.4509   -3.5800 C.3     1  UNL1        0.0000
     50 C           5.9899   -0.0544   -4.0696 C.3     1  UNL1        0.0000
     51 C           5.9598    0.9627   -2.9234 C.3     1  UNL1        0.0000
     52 C           4.6201    0.9438   -2.1805 C.3     1  UNL1        0.0000
     53 C           5.9335   -0.1246    0.2972 C.2     1  UNL1        0.0000
     54 C           6.4607   -1.0272    1.3556 C.ar    1  UNL1        0.0000
     55 C           7.2697   -0.7415    2.4448 C.ar    1  UNL1        0.0000
     56 C           7.5892   -1.8036    3.2989 C.ar    1  UNL1        0.0000
     57 C           7.1071   -3.0975    3.0582 C.ar    1  UNL1        0.0000
     58 C           6.2902   -3.3715    1.9551 C.ar    1  UNL1        0.0000
     59 C           5.9842   -2.3104    1.1166 C.ar    1  UNL1        0.0000
     60 C           5.1361   -2.2674   -0.1004 C.2     1  UNL1        0.0000
     61 C          -0.5100   -3.9649   -0.6362 C.3     1  UNL1        0.0000
     62 C          -0.2324   -4.2217   -2.1351 C.3     1  UNL1        0.0000
     63 C           1.2662   -4.1285   -2.4492 C.3     1  UNL1        0.0000
     64 C           2.0861   -5.1236   -1.6256 C.3     1  UNL1        0.0000
     65 C           1.8259   -4.9088   -0.1343 C.3     1  UNL1        0.0000
     66 C           0.3327   -4.9471    0.2098 C.3     1  UNL1        0.0000
     67 C          -3.0475   -4.1681   -1.2037 C.2     1  UNL1        0.0000
     68 C          -4.2727   -4.3119   -0.3667 C.ar    1  UNL1        0.0000
     69 C          -5.6026   -4.3876   -0.7479 C.ar    1  UNL1        0.0000
     70 C          -6.5610   -4.4274    0.2725 C.ar    1  UNL1        0.0000
     71 C          -6.1841   -4.3883    1.6214 C.ar    1  UNL1        0.0000
     72 C          -4.8360   -4.3121    1.9914 C.ar    1  UNL1        0.0000
     73 C          -3.8999   -4.2791    0.9700 C.ar    1  UNL1        0.0000
     74 C          -2.4245   -4.1188    1.0341 C.2     1  UNL1        0.0000
     75 H          -2.5939    1.7158    3.3632 H       1  UNL1        0.0000
     76 H          -3.2604    2.6434    2.0373 H       1  UNL1        0.0000
     77 H          -4.7434    2.7183    4.0370 H       1  UNL1        0.0000
     78 H          -5.5654    1.9793    2.6776 H       1  UNL1        0.0000
     79 H          -6.0263    0.6301    4.6845 H       1  UNL1        0.0000
     80 H          -4.3092    0.5205    5.0615 H       1  UNL1        0.0000
     81 H          -5.0291   -1.5878    3.9882 H       1  UNL1        0.0000
     82 H          -5.6744   -0.7094    2.6092 H       1  UNL1        0.0000
     83 H          -3.3814   -1.6698    2.1542 H       1  UNL1        0.0000
     84 H          -2.7314   -0.7224    3.4720 H       1  UNL1        0.0000
     85 H          -6.0480   -0.9803   -4.5557 H       1  UNL1        0.0000
     86 H          -6.9717    1.2808   -4.2489 H       1  UNL1        0.0000
     87 H          -6.5138    2.5781   -2.1511 H       1  UNL1        0.0000
     88 H           2.7156    3.9274   -1.0690 H       1  UNL1        0.0000
     89 H           3.0491    5.3250   -0.0603 H       1  UNL1        0.0000
     90 H           3.8502    2.4447    0.6549 H       1  UNL1        0.0000
     91 H           4.9256    3.6822    0.0453 H       1  UNL1        0.0000
     92 H           4.4837    5.0968    2.0403 H       1  UNL1        0.0000
     93 H           5.0691    3.5085    2.5332 H       1  UNL1        0.0000
     94 H           3.0704    4.2969    3.8920 H       1  UNL1        0.0000
     95 H           2.7968    2.7611    3.0751 H       1  UNL1        0.0000
     96 H           1.7849    5.5164    2.2296 H       1  UNL1        0.0000
     97 H           0.8074    4.1526    2.7797 H       1  UNL1        0.0000
     98 H          -3.8145    4.5139    0.1335 H       1  UNL1        0.0000
     99 H          -4.8611    6.1481   -1.4427 H       1  UNL1        0.0000
    100 H          -3.4714    7.7042   -2.7549 H       1  UNL1        0.0000
    101 H           3.4654   -1.0420   -3.5328 H       1  UNL1        0.0000
    102 H           3.9419   -2.4255   -2.5538 H       1  UNL1        0.0000
    103 H           5.5358   -2.1511   -4.4207 H       1  UNL1        0.0000
    104 H           6.3587   -1.8400   -2.8996 H       1  UNL1        0.0000
    105 H           6.9836   -0.0783   -4.5310 H       1  UNL1        0.0000
    106 H           5.2861    0.2623   -4.8515 H       1  UNL1        0.0000
    107 H           6.1338    1.9748   -3.3053 H       1  UNL1        0.0000
    108 H           6.7700    0.7579   -2.2163 H       1  UNL1        0.0000
    109 H           4.6166    1.6766   -1.3780 H       1  UNL1        0.0000
    110 H           3.8098    1.1988   -2.8702 H       1  UNL1        0.0000
    111 H           8.2176   -1.6242    4.1655 H       1  UNL1        0.0000
    112 H           7.3702   -3.8978    3.7426 H       1  UNL1        0.0000
    113 H           5.9036   -4.3655    1.7588 H       1  UNL1        0.0000
    114 H          -0.7949   -3.5193   -2.7427 H       1  UNL1        0.0000
    115 H          -0.5974   -5.2258   -2.3753 H       1  UNL1        0.0000
    116 H           1.6182   -3.1076   -2.2546 H       1  UNL1        0.0000
    117 H           1.4075   -4.3001   -3.5221 H       1  UNL1        0.0000
    118 H           1.7997   -6.1464   -1.9096 H       1  UNL1        0.0000
    119 H           3.1534   -5.0127   -1.8369 H       1  UNL1        0.0000
    120 H           2.3420   -5.6711    0.4604 H       1  UNL1        0.0000
    121 H           2.2465   -3.9456    0.1667 H       1  UNL1        0.0000
    122 H          -0.0713   -5.9468    0.0044 H       1  UNL1        0.0000
    123 H           0.1863   -4.7390    1.2666 H       1  UNL1        0.0000
    124 H          -5.8820   -4.4037   -1.7958 H       1  UNL1        0.0000
    125 H          -7.6145   -4.4833    0.0169 H       1  UNL1        0.0000
    126 H          -6.9512   -4.4129    2.3889 H       1  UNL1        0.0000
    127 O          -5.0701    2.6128    0.4358 O.2     1  UNL1        0.0000
    128 O          -3.3617   -1.6274   -0.0968 O.2     1  UNL1        0.0000
    129 O          -1.1946    3.5314    1.3097 O.2     1  UNL1        0.0000
    130 O           1.3646    6.4151   -1.2221 O.2     1  UNL1        0.0000
    131 O           6.1091    1.0751    0.2279 O.2     1  UNL1        0.0000
    132 O           4.4932   -3.1842   -0.5706 O.2     1  UNL1        0.0000
    133 O          -1.7560   -3.9604    2.0347 O.2     1  UNL1        0.0000
    134 O          -3.0242   -4.0820   -2.4157 O.2     1  UNL1        0.0000
    135 H          -4.6296   -2.0385   -2.7692 H       1  UNL1        0.0000
    136 H          -0.9707    7.6750   -2.5388 H       1  UNL1        0.0000
    137 H           7.6295    0.2662    2.6215 H       1  UNL1        0.0000
    138 H          -4.5271   -4.2673    3.0300 H       1  UNL1        0.0000
@<TRIPOS>BOND
     1     1     9    1
     2     1     7    1
     3     1     2    1
     4     2    10    1
     5     2     8    1
     6     3    13    1
     7     4    11    1
     8     5    33    1
     9     5    10    1
    10     6    19    1
    11     6     8    1
    12     7     6    1
    13     9     5    1
    14    11     2    1
    15    12     4    1
    16    12     1    1
    17    13     2    1
    18    14     1    1
    19    14     3    1
    20    15    19    1
    21    16    39   am
    22    16    33    1
    23    17    60   am
    24    17    53   am
    25    18    74   am
    26    19    20    1
    27    19    24    1
    28    20    75    1
    29    20    21    1
    30    21    77    1
    31    21    22    1
    32    22    79    1
    33    22    80    1
    34    23    81    1
    35    23    22    1
    36    24    23    1
    37    24    84    1
    38    25   128    2
    39    25    15   am
    40    26    31   ar
    41    26    25    1
    42    27    26   ar
    43    28    29   ar
    44    28    27   ar
    45    29    30   ar
    46    30    87    1
    47    30    31   ar
    48    31    32    1
    49    32   127    2
    50    32    15   am
    51    33    38    1
    52    34    35    1
    53    34    33    1
    54    35    90    1
    55    35    36    1
    56    36    93    1
    57    36    37    1
    58    37    95    1
    59    37    94    1
    60    38    96    1
    61    38    97    1
    62    38    37    1
    63    39   129    2
    64    40    39    1
    65    41    40   ar
    66    41    98    1
    67    42    41   ar
    68    43    44   ar
    69    43    42   ar
    70    44    45   ar
    71    45    46    1
    72    45    40   ar
    73    46    16   am
    74    47     4    1
    75    47    17    1
    76    48   102    1
    77    48    47    1
    78    49   104    1
    79    49    48    1
    80    50    49    1
    81    50    51    1
    82    51   108    1
    83    51    52    1
    84    52    47    1
    85    52   109    1
    86    53    54    1
    87    54    55   ar
    88    55   137    1
    89    55    56   ar
    90    56   111    1
    91    57    56   ar
    92    57   112    1
    93    58    57   ar
    94    59    54   ar
    95    59    58   ar
    96    60    59    1
    97    61     3    1
    98    61    18    1
    99    61    66    1
   100    62    61    1
   101    63   116    1
   102    63    62    1
   103    63    64    1
   104    64    65    1
   105    65   121    1
   106    65    66    1
   107    65   120    1
   108    66   123    1
   109    67    68    1
   110    67    18   am
   111    68    73   ar
   112    69    68   ar
   113    69    70   ar
   114    70    71   ar
   115    71    72   ar
   116    71   126    1
   117    72   138    1
   118    73    74    1
   119    73    72   ar
   120    74   133    2
   121    76    20    1
   122    78    21    1
   123    82    23    1
   124    83    24    1
   125    85    28    1
   126    86    29    1
   127    88    34    1
   128    89    34    1
   129    91    35    1
   130    92    36    1
   131    99    42    1
   132   100    43    1
   133   101    48    1
   134   103    49    1
   135   105    50    1
   136   106    50    1
   137   107    51    1
   138   110    52    1
   139   113    58    1
   140   114    62    1
   141   115    62    1
   142   117    63    1
   143   118    64    1
   144   119    64    1
   145   122    66    1
   146   124    69    1
   147   125    70    1
   148   130    46    2
   149   131    53    2
   150   132    60    2
   151   134    67    2
   152   135    27    1
   153   136    44    1
