@<TRIPOS>MOLECULE
RhRh_S-PhenTTL4_6_sp
 180 199 0 0 0
SMALL
GASTEIGER

@<TRIPOS>ATOM
      1 Rh         -1.0468   -0.7014   -0.2918 Rh      1  UNL1        0.0000
      2 Rh         -0.6640   -1.3040   -2.5734 Rh      1  UNL1        0.0000
      3 C          -2.5936   -2.9642   -1.2232 C.3     1  UNL1        0.0000
      4 C           0.7859    1.0262   -1.7037 C.3     1  UNL1        0.0000
      5 C          -2.8740    0.5251   -2.1505 C.3     1  UNL1        0.0000
      6 C           1.1699   -2.4882   -0.6800 C.3     1  UNL1        0.0000
      7 O           0.2808    0.8500   -0.5527 O.3     1  UNL1        0.0000
      8 O           0.5445    0.3374   -2.7401 O.3     1  UNL1        0.0000
      9 O           0.4898   -1.9132    0.2186 O.3     1  UNL1        0.0000
     10 O           0.9512   -2.4327   -1.9317 O.3     1  UNL1        0.0000
     11 O          -2.3399   -2.2968   -0.1710 O.3     1  UNL1        0.0000
     12 O          -1.9694   -2.8799   -2.3225 O.3     1  UNL1        0.0000
     13 O          -2.6174    0.4621   -0.9097 O.3     1  UNL1        0.0000
     14 O          -2.2910   -0.1308   -3.0667 O.3     1  UNL1        0.0000
     15 N           2.9986    1.8471   -1.0835 N.am    1  UNL1        0.0000
     16 N           3.4228   -2.7042    0.3847 N.am    1  UNL1        0.0000
     17 N          -4.6567   -3.4863   -0.0797 N.am    1  UNL1        0.0000
     18 N          -3.8698    2.6711   -1.6822 N.am    1  UNL1        0.0000
     19 C           1.7722    2.1983   -1.8029 C.3     1  UNL1        0.0000
     20 C           3.6703    2.7480   -0.2409 C.2     1  UNL1        0.0000
     21 C           5.0519    2.1967   -0.0668 C.ar    1  UNL1        0.0000
     22 C           6.1752    2.7657    0.5972 C.ar    1  UNL1        0.0000
     23 C           7.4325    2.0964    0.4506 C.ar    1  UNL1        0.0000
     24 C           7.5463    0.8955   -0.3743 C.ar    1  UNL1        0.0000
     25 C           6.3626    0.3311   -0.9819 C.ar    1  UNL1        0.0000
     26 C           5.1381    1.0275   -0.7720 C.ar    1  UNL1        0.0000
     27 C           3.7914    0.7175   -1.3376 C.2     1  UNL1        0.0000
     28 C           2.0648    2.7835   -3.2226 C.3     1  UNL1        0.0000
     29 C           0.7356    3.2032   -3.8745 C.3     1  UNL1        0.0000
     30 C           2.9343    4.0443   -3.0471 C.3     1  UNL1        0.0000
     31 C           2.8088    1.8056   -4.1489 C.3     1  UNL1        0.0000
     32 C           2.2872   -3.4193   -0.2093 C.3     1  UNL1        0.0000
     33 C           3.4440   -1.6113    1.2813 C.2     1  UNL1        0.0000
     34 C           4.8830   -1.3896    1.6207 C.ar    1  UNL1        0.0000
     35 C           5.4467   -0.3947    2.4710 C.ar    1  UNL1        0.0000
     36 C           6.8616   -0.4370    2.6747 C.ar    1  UNL1        0.0000
     37 C           7.6634   -1.4786    2.0423 C.ar    1  UNL1        0.0000
     38 C           7.0493   -2.4322    1.1704 C.ar    1  UNL1        0.0000
     39 C           5.6401   -2.3285    0.9819 C.ar    1  UNL1        0.0000
     40 C           4.7374   -3.1370    0.1123 C.2     1  UNL1        0.0000
     41 C           1.7262   -4.5683    0.7014 C.3     1  UNL1        0.0000
     42 C           1.3926   -4.0825    2.1206 C.3     1  UNL1        0.0000
     43 C           0.4572   -5.1342    0.0336 C.3     1  UNL1        0.0000
     44 C           2.7818   -5.6843    0.7926 C.3     1  UNL1        0.0000
     45 C          -3.7347   -3.9832   -1.0946 C.3     1  UNL1        0.0000
     46 C          -4.7735   -4.1360    1.1619 C.2     1  UNL1        0.0000
     47 C          -5.4567   -3.1750    2.0722 C.ar    1  UNL1        0.0000
     48 C          -5.8406   -3.3479    3.4337 C.ar    1  UNL1        0.0000
     49 C          -6.4258   -2.2228    4.0964 C.ar    1  UNL1        0.0000
     50 C          -6.5945   -0.9585    3.3870 C.ar    1  UNL1        0.0000
     51 C          -6.2116   -0.8457    2.0114 C.ar    1  UNL1        0.0000
     52 C          -5.6442   -1.9993    1.3958 C.ar    1  UNL1        0.0000
     53 C          -5.1238   -2.1632    0.0056 C.2     1  UNL1        0.0000
     54 C          -4.4114   -4.4831   -2.4075 C.3     1  UNL1        0.0000
     55 C          -5.6222   -5.3432   -2.0004 C.3     1  UNL1        0.0000
     56 C          -4.8808   -3.3383   -3.3201 C.3     1  UNL1        0.0000
     57 C          -3.4113   -5.3799   -3.1632 C.3     1  UNL1        0.0000
     58 C          -4.0231    1.4782   -2.5177 C.3     1  UNL1        0.0000
     59 C          -2.6302    3.2193   -1.3196 C.2     1  UNL1        0.0000
     60 C          -2.8968    4.1441   -0.1834 C.ar    1  UNL1        0.0000
     61 C          -1.9667    4.8850    0.5998 C.ar    1  UNL1        0.0000
     62 C          -2.4970    5.6882    1.6581 C.ar    1  UNL1        0.0000
     63 C          -3.9396    5.7535    1.8746 C.ar    1  UNL1        0.0000
     64 C          -4.8290    4.9803    1.0609 C.ar    1  UNL1        0.0000
     65 C          -4.2441    4.1582    0.0542 C.ar    1  UNL1        0.0000
     66 C          -4.8886    3.1603   -0.8527 C.2     1  UNL1        0.0000
     67 C          -4.2590    1.7864   -4.0234 C.3     1  UNL1        0.0000
     68 C          -5.4026    2.8139   -4.1199 C.3     1  UNL1        0.0000
     69 C          -3.0094    2.3614   -4.7084 C.3     1  UNL1        0.0000
     70 C          -4.7109    0.4919   -4.7265 C.3     1  UNL1        0.0000
     71 C          -7.1193    0.1945    4.0130 C.ar    1  UNL1        0.0000
     72 C          -6.3707    0.3780    1.3221 C.ar    1  UNL1        0.0000
     73 C          -6.8160   -2.3939    5.4438 C.ar    1  UNL1        0.0000
     74 C          -5.6575   -4.5707    4.1203 C.ar    1  UNL1        0.0000
     75 C          -6.0499   -4.6930    5.4368 C.ar    1  UNL1        0.0000
     76 C          -6.6345   -3.5973    6.0984 C.ar    1  UNL1        0.0000
     77 C          -6.8875    1.4790    1.9717 C.ar    1  UNL1        0.0000
     78 C          -7.2591    1.3848    3.3246 C.ar    1  UNL1        0.0000
     79 C          -0.5711    4.7978    0.3934 C.ar    1  UNL1        0.0000
     80 C          -1.5707    6.3854    2.4661 C.ar    1  UNL1        0.0000
     81 C           0.3022    5.4831    1.2110 C.ar    1  UNL1        0.0000
     82 C          -0.2083    6.2850    2.2496 C.ar    1  UNL1        0.0000
     83 C          -4.5174    6.5629    2.8787 C.ar    1  UNL1        0.0000
     84 C          -6.2274    5.0575    1.2567 C.ar    1  UNL1        0.0000
     85 C          -6.7496    5.8608    2.2489 C.ar    1  UNL1        0.0000
     86 C          -5.8858    6.6127    3.0666 C.ar    1  UNL1        0.0000
     87 C           6.0764    3.9454    1.3698 C.ar    1  UNL1        0.0000
     88 C           8.5455    2.6590    1.1165 C.ar    1  UNL1        0.0000
     89 C           8.8233    0.2862   -0.6107 C.2     1  UNL1        0.0000
     90 C           6.4030   -0.8321   -1.8246 C.2     1  UNL1        0.0000
     91 C           7.1898    4.4632    1.9965 C.ar    1  UNL1        0.0000
     92 C           8.4300    3.8118    1.8685 C.ar    1  UNL1        0.0000
     93 C           7.6871   -1.2756   -1.9440 C.2     1  UNL1        0.0000
     94 C           8.7314   -0.8059   -1.4295 C.2     1  UNL1        0.0000
     95 C           4.6659    0.6206    3.0715 C.ar    1  UNL1        0.0000
     96 C           7.4313    0.5666    3.4896 C.ar    1  UNL1        0.0000
     97 C           5.2649    1.5837    3.8553 C.ar    1  UNL1        0.0000
     98 C           6.6554    1.5538    4.0642 C.ar    1  UNL1        0.0000
     99 C           9.0571   -1.5885    2.2478 C.ar    1  UNL1        0.0000
    100 C           7.8245   -3.4353    0.5467 C.ar    1  UNL1        0.0000
    101 C           9.1827   -3.5080    0.7755 C.ar    1  UNL1        0.0000
    102 C           9.7995   -2.5779    1.6315 C.ar    1  UNL1        0.0000
    103 H           1.3236    2.9917   -1.2024 H       1  UNL1        0.0000
    104 H           0.0799    2.3490   -4.0399 H       1  UNL1        0.0000
    105 H           0.9421    3.6734   -4.8412 H       1  UNL1        0.0000
    106 H           0.1958    3.9213   -3.2532 H       1  UNL1        0.0000
    107 H           2.4744    4.7639   -2.3633 H       1  UNL1        0.0000
    108 H           3.0667    4.5312   -4.0179 H       1  UNL1        0.0000
    109 H           3.9315    3.8045   -2.6661 H       1  UNL1        0.0000
    110 H           2.9208    2.2688   -5.1347 H       1  UNL1        0.0000
    111 H           2.2687    0.8663   -4.2602 H       1  UNL1        0.0000
    112 H           3.8150    1.5829   -3.7834 H       1  UNL1        0.0000
    113 H           2.6968   -3.8781   -1.1108 H       1  UNL1        0.0000
    114 H           0.9773   -4.9154    2.6974 H       1  UNL1        0.0000
    115 H           0.6706   -3.2666    2.1090 H       1  UNL1        0.0000
    116 H           2.2902   -3.7372    2.6414 H       1  UNL1        0.0000
    117 H           0.1291   -6.0316    0.5662 H       1  UNL1        0.0000
    118 H           0.6396   -5.4090   -1.0107 H       1  UNL1        0.0000
    119 H          -0.3640   -4.4136    0.0650 H       1  UNL1        0.0000
    120 H           2.3803   -6.5191    1.3758 H       1  UNL1        0.0000
    121 H           3.6913   -5.3412    1.2923 H       1  UNL1        0.0000
    122 H           3.0648   -6.0573   -0.1956 H       1  UNL1        0.0000
    123 H          -3.2847   -4.8665   -0.6229 H       1  UNL1        0.0000
    124 H          -6.0530   -5.8160   -2.8882 H       1  UNL1        0.0000
    125 H          -6.4016   -4.7394   -1.5284 H       1  UNL1        0.0000
    126 H          -5.3345   -6.1326   -1.2982 H       1  UNL1        0.0000
    127 H          -5.3355   -3.7594   -4.2230 H       1  UNL1        0.0000
    128 H          -4.0473   -2.7018   -3.6218 H       1  UNL1        0.0000
    129 H          -5.6207   -2.7086   -2.8239 H       1  UNL1        0.0000
    130 H          -3.8955   -5.8042   -4.0484 H       1  UNL1        0.0000
    131 H          -3.0787   -6.2144   -2.5349 H       1  UNL1        0.0000
    132 H          -2.5342   -4.8185   -3.4857 H       1  UNL1        0.0000
    133 H          -4.9249    0.9836   -2.1384 H       1  UNL1        0.0000
    134 H          -5.6608    2.9759   -5.1709 H       1  UNL1        0.0000
    135 H          -5.1104    3.7790   -3.6963 H       1  UNL1        0.0000
    136 H          -6.2978    2.4719   -3.5928 H       1  UNL1        0.0000
    137 H          -3.2424    2.6007   -5.7512 H       1  UNL1        0.0000
    138 H          -2.1842    1.6488   -4.6933 H       1  UNL1        0.0000
    139 H          -2.6735    3.2789   -4.2191 H       1  UNL1        0.0000
    140 H          -3.9248   -0.2631   -4.7229 H       1  UNL1        0.0000
    141 H          -4.9753    0.7118   -5.7657 H       1  UNL1        0.0000
    142 H          -5.5961    0.0687   -4.2389 H       1  UNL1        0.0000
    143 H           5.5012   -1.2343   -2.2656 H       1  UNL1        0.0000
    144 H           9.7362    0.6770   -0.1835 H       1  UNL1        0.0000
    145 H           9.5140    2.1800    1.0514 H       1  UNL1        0.0000
    146 H           5.1078    4.4233    1.4507 H       1  UNL1        0.0000
    147 H          -1.9223    7.0045    3.2824 H       1  UNL1        0.0000
    148 H          -3.8834    7.1664    3.5164 H       1  UNL1        0.0000
    149 H          -6.8703    4.4852    0.5994 H       1  UNL1        0.0000
    150 H          -0.2126    4.1672   -0.4078 H       1  UNL1        0.0000
    151 H           8.5008    0.5857    3.6564 H       1  UNL1        0.0000
    152 H           3.5984    0.6215    2.8923 H       1  UNL1        0.0000
    153 H          -7.2713   -1.5728    5.9834 H       1  UNL1        0.0000
    154 H          -5.2027   -5.3966    3.5872 H       1  UNL1        0.0000
    155 H          -7.4116    0.1586    5.0552 H       1  UNL1        0.0000
    156 H          -6.0773    0.4376    0.2829 H       1  UNL1        0.0000
    157 O          -6.0481    2.7873   -0.8881 O.2     1  UNL1        0.0000
    158 O          -1.5747    2.9587   -1.8652 O.2     1  UNL1        0.0000
    159 O          -4.3554   -5.2568    1.3874 O.2     1  UNL1        0.0000
    160 O          -5.0861   -1.3530   -0.9021 O.2     1  UNL1        0.0000
    161 O           2.4937   -0.9860    1.7002 O.2     1  UNL1        0.0000
    162 O           5.0275   -4.0008   -0.6943 O.2     1  UNL1        0.0000
    163 O           3.4114   -0.2993   -1.8860 O.2     1  UNL1        0.0000
    164 O           3.1931    3.7787    0.1970 O.2     1  UNL1        0.0000
    165 H           9.5622   -0.8936    2.9073 H       1  UNL1        0.0000
    166 H          -5.9093   -5.6324    5.9618 H       1  UNL1        0.0000
    167 H          -6.9467   -3.6956    7.1335 H       1  UNL1        0.0000
    168 H          -6.9954    2.4109    1.4330 H       1  UNL1        0.0000
    169 H          -7.6556    2.2570    3.8356 H       1  UNL1        0.0000
    170 H           7.3253   -4.1308   -0.1166 H       1  UNL1        0.0000
    171 H           9.7752   -4.2786    0.2933 H       1  UNL1        0.0000
    172 H          10.8683   -2.6370    1.8128 H       1  UNL1        0.0000
    173 H           4.6656    2.3697    4.3027 H       1  UNL1        0.0000
    174 H           7.1279    2.3222    4.6669 H       1  UNL1        0.0000
    175 H           1.3712    5.3828    1.0568 H       1  UNL1        0.0000
    176 H           0.4748    6.8268    2.8967 H       1  UNL1        0.0000
    177 H          -7.8236    5.9196    2.3935 H       1  UNL1        0.0000
    178 H          -6.2961    7.2461    3.8469 H       1  UNL1        0.0000
    179 H           7.1101    5.3690    2.5891 H       1  UNL1        0.0000
    180 H           9.3064    4.2149    2.3666 H       1  UNL1        0.0000
@<TRIPOS>BOND
     1     1    11    1
     2     1     9    1
     3     2    12    1
     4     2    10    1
     5     2     1    1
     6     3    45    1
     7     3    11    1
     8     4    19    1
     9     4     7    1
    10     5    58    1
    11     5    13    1
    12     6    32    1
    13     6     9    1
    14     7     1    1
    15     8     2    1
    16     8     4    1
    17    10     6    1
    18    12     3    1
    19    13     1    1
    20    14     2    1
    21    14     5    1
    22    15    20   am
    23    16    33   am
    24    17    53   am
    25    17    46   am
    26    18    59   am
    27    18    66   am
    28    19   103    1
    29    19    15    1
    30    20    21    1
    31    20   164    2
    32    21    22   ar
    33    22    87   ar
    34    23    22   ar
    35    23    88   ar
    36    24    23   ar
    37    25    26   ar
    38    25    24   ar
    39    26    21   ar
    40    27    15   am
    41    27    26    1
    42    28    30    1
    43    28    19    1
    44    29   106    1
    45    29    28    1
    46    30   109    1
    47    30   107    1
    48    31   112    1
    49    31    28    1
    50    32   113    1
    51    32    16    1
    52    32    41    1
    53    33    34    1
    54    33   161    2
    55    34    35   ar
    56    35    36   ar
    57    35    95   ar
    58    36    96   ar
    59    37    99   ar
    60    37    36   ar
    61    38    37   ar
    62    39    38   ar
    63    39    34   ar
    64    40    16   am
    65    40    39    1
    66    41    44    1
    67    41    42    1
    68    42   116    1
    69    42   114    1
    70    43   119    1
    71    43   117    1
    72    43    41    1
    73    44   121    1
    74    44   120    1
    75    45   123    1
    76    45    17    1
    77    46   159    2
    78    46    47    1
    79    47    48   ar
    80    48    49   ar
    81    48    74   ar
    82    49    73   ar
    83    50    71   ar
    84    50    49   ar
    85    51    50   ar
    86    52    51   ar
    87    52    47   ar
    88    53    52    1
    89    54    55    1
    90    54    45    1
    91    55   125    1
    92    55   126    1
    93    56   129    1
    94    56    54    1
    95    57   131    1
    96    57    54    1
    97    58   133    1
    98    58    18    1
    99    59    60    1
   100    60    65   ar
   101    60    61   ar
   102    61    62   ar
   103    62    63   ar
   104    62    80   ar
   105    63    83   ar
   106    64    84   ar
   107    64    63   ar
   108    65    64   ar
   109    66    65    1
   110    67    58    1
   111    68    67    1
   112    68   135    1
   113    68   136    1
   114    69   138    1
   115    69   139    1
   116    69    67    1
   117    70   140    1
   118    70   142    1
   119    70    67    1
   120    71   155    1
   121    72    77   ar
   122    72    51   ar
   123    73   153    1
   124    73    76   ar
   125    74    75   ar
   126    75   166    1
   127    75    76   ar
   128    76   167    1
   129    77    78   ar
   130    78   169    1
   131    78    71   ar
   132    79    61   ar
   133    79    81   ar
   134    80   147    1
   135    81    82   ar
   136    82    80   ar
   137    82   176    1
   138    83    86   ar
   139    83   148    1
   140    84    85   ar
   141    85   177    1
   142    85    86   ar
   143    86   178    1
   144    87   146    1
   145    87    91   ar
   146    88    92   ar
   147    89    24    1
   148    89   144    1
   149    90    25    1
   150    91   179    1
   151    92    91   ar
   152    92   180    1
   153    93    90    2
   154    93    94    1
   155    94    89    2
   156    95    97   ar
   157    96   151    1
   158    96    98   ar
   159    97    98   ar
   160    97   173    1
   161    98   174    1
   162    99   165    1
   163   100   101   ar
   164   100    38   ar
   165   101   102   ar
   166   102   172    1
   167   102    99   ar
   168   104    29    1
   169   105    29    1
   170   108    30    1
   171   110    31    1
   172   111    31    1
   173   115    42    1
   174   118    43    1
   175   122    44    1
   176   124    55    1
   177   127    56    1
   178   128    56    1
   179   130    57    1
   180   132    57    1
   181   134    68    1
   182   137    69    1
   183   141    70    1
   184   143    90    1
   185   145    88    1
   186   149    84    1
   187   150    79    1
   188   152    95    1
   189   154    74    1
   190   156    72    1
   191   157    66    2
   192   158    59    2
   193   160    53    2
   194   162    40    2
   195   163    27    2
   196   168    77    1
   197   170   100    1
   198   171   101    1
   199   175    81    1
