@<TRIPOS>MOLECULE
RhRh_S-TCPTAD_7_sp
 182 205 0 0 0
SMALL
GASTEIGER

@<TRIPOS>ATOM
      1 Rh         -0.8118   -0.9764   -2.3243 Rh      1  UNL1        0.0000
      2 O          -2.1153    0.6044   -2.3616 O.3     1  UNL1        0.0000
      3 O           0.4804   -2.5649   -2.1547 O.3     1  UNL1        0.0000
      4 O          -1.5950    1.2103   -0.2513 O.3     1  UNL1        0.0000
      5 O           1.0319   -1.9633   -0.0446 O.3     1  UNL1        0.0000
      6 O           0.7750    0.1662   -2.9672 O.3     1  UNL1        0.0000
      7 O          -2.3277   -2.1300   -1.5538 O.3     1  UNL1        0.0000
      8 O          -1.7927   -1.5574    0.5610 O.3     1  UNL1        0.0000
      9 O           1.2856    0.7959   -0.8608 O.3     1  UNL1        0.0000
     10 C          -2.5114   -2.1511   -0.3038 C.3     1  UNL1        0.0000
     11 C           1.5261    0.7071   -2.1026 C.3     1  UNL1        0.0000
     12 C          -2.2663    1.3163   -1.3298 C.3     1  UNL1        0.0000
     13 C           1.0921   -2.7243   -1.0526 C.3     1  UNL1        0.0000
     14 Rh         -0.2521   -0.3441   -0.0901 Rh      1  UNL1        0.0000
     15 C           2.8322    1.3669   -2.6069 C.3     1  UNL1        0.0000
     16 N           3.6230    1.8848   -1.4847 N.am    1  UNL1        0.0000
     17 C           3.9461    3.2544   -1.4477 C.2     1  UNL1        0.0000
     18 C           4.0657    1.2067   -0.3314 C.2     1  UNL1        0.0000
     19 O           3.6580    4.0555   -2.3117 O.2     1  UNL1        0.0000
     20 C           4.6883    3.4721   -0.1706 C.ar    1  UNL1        0.0000
     21 O           3.9359    0.0304   -0.0834 O.2     1  UNL1        0.0000
     22 C           4.7461    2.2525    0.5059 C.ar    1  UNL1        0.0000
     23 C           5.2619    4.6247    0.3503 C.ar    1  UNL1        0.0000
     24 C           5.3729    2.1413    1.7396 C.ar    1  UNL1        0.0000
     25 CL          5.1963    6.1255   -0.5077 Cl      1  UNL1        0.0000
     26 C           5.9063    4.5316    1.6037 C.ar    1  UNL1        0.0000
     27 C           5.9588    3.3023    2.2928 C.ar    1  UNL1        0.0000
     28 CL          5.4353    0.6321    2.5858 Cl      1  UNL1        0.0000
     29 CL          6.6364    5.9408    2.2960 Cl      1  UNL1        0.0000
     30 CL          6.7496    3.2110    3.8304 Cl      1  UNL1        0.0000
     31 C          -3.3806    2.3916   -1.2449 C.3     1  UNL1        0.0000
     32 N          -2.7690    3.6717   -0.8648 N.am    1  UNL1        0.0000
     33 C          -3.2641    4.4550    0.1920 C.2     1  UNL1        0.0000
     34 C          -1.5264    4.1332   -1.3272 C.2     1  UNL1        0.0000
     35 O          -4.2705    4.2212    0.8252 O.2     1  UNL1        0.0000
     36 C          -2.3031    5.5933    0.3369 C.ar    1  UNL1        0.0000
     37 O          -0.8438    3.5827   -2.1639 O.2     1  UNL1        0.0000
     38 C          -1.2547    5.3942   -0.5645 C.ar    1  UNL1        0.0000
     39 C          -2.3368    6.6944    1.1813 C.ar    1  UNL1        0.0000
     40 C          -0.1899    6.2813   -0.6487 C.ar    1  UNL1        0.0000
     41 CL         -3.6423    6.9319    2.2926 Cl      1  UNL1        0.0000
     42 C          -1.2709    7.6188    1.1023 C.ar    1  UNL1        0.0000
     43 C          -0.2080    7.4127    0.1991 C.ar    1  UNL1        0.0000
     44 CL          1.1265    5.9975   -1.7310 Cl      1  UNL1        0.0000
     45 CL          1.0933    8.5528    0.1253 Cl      1  UNL1        0.0000
     46 C          -3.6369   -3.0215    0.3148 C.3     1  UNL1        0.0000
     47 N          -4.2106   -2.3075    1.4569 N.am    1  UNL1        0.0000
     48 C          -4.5249   -0.9429    1.4941 C.2     1  UNL1        0.0000
     49 C          -4.2535   -2.8984    2.7354 C.2     1  UNL1        0.0000
     50 O          -4.4715   -0.1846    0.5482 O.2     1  UNL1        0.0000
     51 C          -4.9133   -0.6582    2.9125 C.ar    1  UNL1        0.0000
     52 O          -3.9265   -4.0383    2.9792 O.2     1  UNL1        0.0000
     53 C          -4.7652   -1.8346    3.6526 C.ar    1  UNL1        0.0000
     54 C          -5.3530    0.5203    3.5015 C.ar    1  UNL1        0.0000
     55 C          -5.0634   -1.8849    5.0070 C.ar    1  UNL1        0.0000
     56 CL         -5.4807    1.9811    2.5897 Cl      1  UNL1        0.0000
     57 C          -5.6674    0.4882    4.8798 C.ar    1  UNL1        0.0000
     58 C          -5.5274   -0.7012    5.6240 C.ar    1  UNL1        0.0000
     59 CL         -4.8778   -3.3491    5.9098 Cl      1  UNL1        0.0000
     60 CL         -6.2278    1.9301    5.6574 Cl      1  UNL1        0.0000
     61 CL         -5.9214   -0.7161    7.3100 Cl      1  UNL1        0.0000
     62 C           2.0345   -3.9409   -0.9821 C.3     1  UNL1        0.0000
     63 N           2.9538   -3.8465    0.1549 N.am    1  UNL1        0.0000
     64 C           2.6729   -3.7651    1.5356 C.2     1  UNL1        0.0000
     65 C           4.3224   -3.6412   -0.1146 C.2     1  UNL1        0.0000
     66 O           1.5974   -3.8924    2.0689 O.2     1  UNL1        0.0000
     67 C           4.0011   -3.5223    2.1950 C.ar    1  UNL1        0.0000
     68 O           4.8162   -3.6426   -1.2219 O.2     1  UNL1        0.0000
     69 C           4.9841   -3.4512    1.2080 C.ar    1  UNL1        0.0000
     70 C           4.3176   -3.3896    3.5405 C.ar    1  UNL1        0.0000
     71 C           6.3205   -3.2408    1.5196 C.ar    1  UNL1        0.0000
     72 CL          3.0979   -3.4838    4.7651 Cl      1  UNL1        0.0000
     73 C           5.6723   -3.1765    3.8824 C.ar    1  UNL1        0.0000
     74 C           6.6643   -3.1021    2.8819 C.ar    1  UNL1        0.0000
     75 CL          7.5258   -3.1515    0.2807 Cl      1  UNL1        0.0000
     76 CL          6.1168   -3.0084    5.5486 Cl      1  UNL1        0.0000
     77 CL          8.3191   -2.8423    3.3241 Cl      1  UNL1        0.0000
     78 H           2.7158   -3.8220   -1.8342 H       1  UNL1        0.0000
     79 H          -3.1184   -3.8720    0.7787 H       1  UNL1        0.0000
     80 H          -3.9694    2.0894   -0.3710 H       1  UNL1        0.0000
     81 H           2.5164    2.2844   -3.1215 H       1  UNL1        0.0000
     82 CL         -1.2726    9.0133    2.1293 Cl      1  UNL1        0.0000
     83 C          -5.3387    1.6836   -5.1431 C.3     1  UNL1        0.0000
     84 H          -4.5906    0.8992   -5.3929 H       1  UNL1        0.0000
     85 H          -6.0452    1.7521   -5.9994 H       1  UNL1        0.0000
     86 C          -4.6314    3.0402   -4.9342 C.3     1  UNL1        0.0000
     87 H          -4.0921    3.3226   -5.8646 H       1  UNL1        0.0000
     88 C          -6.1039    1.2942   -3.8601 C.3     1  UNL1        0.0000
     89 H          -6.6177    0.3204   -4.0161 H       1  UNL1        0.0000
     90 C          -5.1084    1.1671   -2.6890 C.3     1  UNL1        0.0000
     91 H          -4.4093    0.3433   -2.9281 H       1  UNL1        0.0000
     92 H          -5.6580    0.8692   -1.7687 H       1  UNL1        0.0000
     93 C          -3.6220    2.9268   -3.7697 C.3     1  UNL1        0.0000
     94 H          -3.1151    3.9070   -3.6385 H       1  UNL1        0.0000
     95 H          -2.8422    2.1901   -4.0490 H       1  UNL1        0.0000
     96 C          -4.3544    2.5158   -2.4558 C.3     1  UNL1        0.0000
     97 C          -5.4329    3.6040   -2.1503 C.3     1  UNL1        0.0000
     98 H          -5.9837    3.3500   -1.2173 H       1  UNL1        0.0000
     99 H          -4.9560    4.5961   -1.9948 H       1  UNL1        0.0000
    100 C          -5.6809    4.1216   -4.6033 C.3     1  UNL1        0.0000
    101 H          -6.3970    4.2277   -5.4477 H       1  UNL1        0.0000
    102 H          -5.1826    5.1065   -4.4659 H       1  UNL1        0.0000
    103 C          -7.1492    2.3776   -3.5297 C.3     1  UNL1        0.0000
    104 H          -7.8849    2.4619   -4.3596 H       1  UNL1        0.0000
    105 H          -7.7131    2.0960   -2.6133 H       1  UNL1        0.0000
    106 C          -6.4365    3.7279   -3.3171 C.3     1  UNL1        0.0000
    107 H          -7.1899    4.5094   -3.0768 H       1  UNL1        0.0000
    108 C          -4.0767   -4.6370   -1.6231 C.3     1  UNL1        0.0000
    109 H          -3.5983   -5.4549   -1.0409 H       1  UNL1        0.0000
    110 H          -3.2848   -4.1845   -2.2510 H       1  UNL1        0.0000
    111 C          -4.7187   -3.5956   -0.6517 C.3     1  UNL1        0.0000
    112 C          -5.1434   -5.2376   -2.5617 C.3     1  UNL1        0.0000
    113 H          -4.6617   -5.9641   -3.2521 H       1  UNL1        0.0000
    114 C          -6.2149   -5.9620   -1.7231 C.3     1  UNL1        0.0000
    115 H          -5.7492   -6.7875   -1.1409 H       1  UNL1        0.0000
    116 H          -6.9780   -6.4171   -2.3921 H       1  UNL1        0.0000
    117 C          -5.8181   -4.3445    0.1689 C.3     1  UNL1        0.0000
    118 H          -6.3274   -3.6485    0.8711 H       1  UNL1        0.0000
    119 H          -5.3588   -5.1530    0.7799 H       1  UNL1        0.0000
    120 C          -6.8841   -4.9543   -0.7677 C.3     1  UNL1        0.0000
    121 H          -7.6555   -5.4767   -0.1609 H       1  UNL1        0.0000
    122 C          -7.5508   -3.8304   -1.5881 C.3     1  UNL1        0.0000
    123 H          -8.3309   -4.2581   -2.2557 H       1  UNL1        0.0000
    124 H          -8.0561   -3.1103   -0.9074 H       1  UNL1        0.0000
    125 C          -5.4233   -2.4832   -1.4871 C.3     1  UNL1        0.0000
    126 H          -4.6952   -1.9175   -2.1008 H       1  UNL1        0.0000
    127 H          -5.9295   -1.7571   -0.8175 H       1  UNL1        0.0000
    128 C          -5.8011   -4.1070   -3.3817 C.3     1  UNL1        0.0000
    129 H          -5.0341   -3.5873   -3.9975 H       1  UNL1        0.0000
    130 H          -6.5535   -4.5341   -4.0806 H       1  UNL1        0.0000
    131 C          -6.4804   -3.1019   -2.4273 C.3     1  UNL1        0.0000
    132 H          -6.9628   -2.2954   -3.0217 H       1  UNL1        0.0000
    133 C           6.0404   -1.1677   -4.3329 C.3     1  UNL1        0.0000
    134 H           6.5511   -1.2273   -3.3464 H       1  UNL1        0.0000
    135 H           6.6504   -1.7508   -5.0574 H       1  UNL1        0.0000
    136 C           5.9417    0.3030   -4.7898 C.3     1  UNL1        0.0000
    137 H           6.9629    0.7364   -4.8638 H       1  UNL1        0.0000
    138 C           4.6242   -1.7707   -4.2311 C.3     1  UNL1        0.0000
    139 H           4.6969   -2.8325   -3.9100 H       1  UNL1        0.0000
    140 C           3.7990   -0.9752   -3.1962 C.3     1  UNL1        0.0000
    141 H           4.2991   -1.0592   -2.2129 H       1  UNL1        0.0000
    142 H           2.8004   -1.4486   -3.1044 H       1  UNL1        0.0000
    143 C           5.1151    1.1062   -3.7626 C.3     1  UNL1        0.0000
    144 H           5.0677    2.1721   -4.0784 H       1  UNL1        0.0000
    145 H           5.6491    1.0732   -2.7878 H       1  UNL1        0.0000
    146 C           3.6722    0.5200   -3.6245 C.3     1  UNL1        0.0000
    147 C           3.0118    0.5740   -5.0411 C.3     1  UNL1        0.0000
    148 H           1.9855    0.1566   -5.0279 H       1  UNL1        0.0000
    149 H           2.9281    1.6284   -5.3870 H       1  UNL1        0.0000
    150 C           5.2558    0.3708   -6.1683 C.3     1  UNL1        0.0000
    151 H           5.8540   -0.1910   -6.9190 H       1  UNL1        0.0000
    152 H           5.1973    1.4266   -6.5131 H       1  UNL1        0.0000
    153 C           3.9328   -1.7013   -5.6083 C.3     1  UNL1        0.0000
    154 H           4.5085   -2.2945   -6.3523 H       1  UNL1        0.0000
    155 H           2.9151   -2.1460   -5.5455 H       1  UNL1        0.0000
    156 C           3.8402   -0.2305   -6.0653 C.3     1  UNL1        0.0000
    157 H           3.3464   -0.1832   -7.0603 H       1  UNL1        0.0000
    158 C           1.0388   -5.6054   -2.6499 C.3     1  UNL1        0.0000
    159 H           1.9858   -5.5783   -3.2340 H       1  UNL1        0.0000
    160 H           0.3705   -4.8297   -3.0775 H       1  UNL1        0.0000
    161 C           1.3246   -5.3286   -1.1375 C.3     1  UNL1        0.0000
    162 C           0.3682   -6.9824   -2.8414 C.3     1  UNL1        0.0000
    163 H           0.1736   -7.1527   -3.9228 H       1  UNL1        0.0000
    164 C           1.3013   -8.0879   -2.3091 C.3     1  UNL1        0.0000
    165 H           2.2598   -8.0819   -2.8734 H       1  UNL1        0.0000
    166 H           0.8336   -9.0857   -2.4597 H       1  UNL1        0.0000
    167 C           2.2446   -6.4778   -0.6158 C.3     1  UNL1        0.0000
    168 H           2.4613   -6.3481    0.4665 H       1  UNL1        0.0000
    169 H           3.2192   -6.4622   -1.1527 H       1  UNL1        0.0000
    170 C           1.5701   -7.8526   -0.8096 C.3     1  UNL1        0.0000
    171 H           2.2409   -8.6516   -0.4251 H       1  UNL1        0.0000
    172 C           0.2366   -7.8844   -0.0332 C.3     1  UNL1        0.0000
    173 H          -0.2465   -8.8795   -0.1489 H       1  UNL1        0.0000
    174 H           0.4241   -7.7314    1.0524 H       1  UNL1        0.0000
    175 C          -0.0345   -5.3992   -0.3702 C.3     1  UNL1        0.0000
    176 H          -0.7357   -4.6168   -0.7324 H       1  UNL1        0.0000
    177 H           0.1133   -5.2318    0.7132 H       1  UNL1        0.0000
    178 C          -0.9665   -7.0144   -2.0694 C.3     1  UNL1        0.0000
    179 H          -1.6490   -6.2310   -2.4642 H       1  UNL1        0.0000
    180 H          -1.4688   -7.9956   -2.2172 H       1  UNL1        0.0000
    181 C          -0.6986   -6.7797   -0.5680 C.3     1  UNL1        0.0000
    182 H          -1.6608   -6.8102   -0.0117 H       1  UNL1        0.0000
@<TRIPOS>BOND
     1     1     3    1
     2     1     7    1
     3     1    14    1
     4     2     1    1
     5     2    12    1
     6     3    13    1
     7     4    14    1
     8     6     1    1
     9     6    11    1
    10     7    10    1
    11     9    14    1
    12    10    46    1
    13    10     8    1
    14    11    15    1
    15    11     9    1
    16    12    31    1
    17    12     4    1
    18    13    62    1
    19    13     5    1
    20    14     5    1
    21    14     8    1
    22    15    81    1
    23    15    16    1
    24    16    17   am
    25    16    18   am
    26    17    20    1
    27    18    21    2
    28    18    22    1
    29    19    17    2
    30    20    23   ar
    31    20    22   ar
    32    22    24   ar
    33    23    26   ar
    34    24    27   ar
    35    24    28    1
    36    25    23    1
    37    26    27   ar
    38    26    29    1
    39    27    30    1
    40    31    32    1
    41    31    80    1
    42    32    33   am
    43    33    36    1
    44    33    35    2
    45    34    32   am
    46    34    38    1
    47    36    39   ar
    48    37    34    2
    49    38    36   ar
    50    39    41    1
    51    40    38   ar
    52    40    43   ar
    53    42    39   ar
    54    42    82    1
    55    43    42   ar
    56    44    40    1
    57    45    43    1
    58    46    79    1
    59    46    47    1
    60    47    48   am
    61    47    49   am
    62    48    51    1
    63    49    52    2
    64    49    53    1
    65    50    48    2
    66    51    54   ar
    67    51    53   ar
    68    53    55   ar
    69    54    57   ar
    70    55    58   ar
    71    55    59    1
    72    56    54    1
    73    57    58   ar
    74    57    60    1
    75    58    61    1
    76    62    78    1
    77    62    63    1
    78    63    64   am
    79    64    66    2
    80    64    67    1
    81    65    63   am
    82    65    69    1
    83    67    70   ar
    84    68    65    2
    85    69    71   ar
    86    69    67   ar
    87    70    73   ar
    88    70    72    1
    89    71    74   ar
    90    73    76    1
    91    74    77    1
    92    74    73   ar
    93    75    71    1
    94    83    86    1
    95    83    88    1
    96    84    83    1
    97    85    83    1
    98    86    87    1
    99    86   100    1
   100    86    93    1
   101    88    89    1
   102    88   103    1
   103    88    90    1
   104    90    96    1
   105    90    92    1
   106    91    90    1
   107    93    94    1
   108    93    96    1
   109    95    93    1
   110    96    97    1
   111    96    31    1
   112    97    99    1
   113    97    98    1
   114   100   102    1
   115   100   106    1
   116   101   100    1
   117   103   106    1
   118   103   105    1
   119   104   103    1
   120   106   107    1
   121   106    97    1
   122   108   109    1
   123   108   111    1
   124   110   108    1
   125   111   117    1
   126   111    46    1
   127   112   113    1
   128   112   114    1
   129   112   108    1
   130   114   115    1
   131   114   120    1
   132   116   114    1
   133   117   119    1
   134   117   118    1
   135   120   121    1
   136   120   117    1
   137   122   124    1
   138   122   120    1
   139   123   122    1
   140   125   127    1
   141   125   111    1
   142   126   125    1
   143   128   112    1
   144   128   131    1
   145   129   128    1
   146   130   128    1
   147   131   132    1
   148   131   122    1
   149   131   125    1
   150   133   138    1
   151   133   134    1
   152   135   133    1
   153   136   137    1
   154   136   133    1
   155   136   143    1
   156   138   139    1
   157   138   140    1
   158   140   142    1
   159   140   141    1
   160   143   146    1
   161   143   145    1
   162   144   143    1
   163   146   140    1
   164   146    15    1
   165   147   148    1
   166   147   146    1
   167   149   147    1
   168   150   156    1
   169   150   136    1
   170   151   150    1
   171   152   150    1
   172   153   155    1
   173   153   138    1
   174   154   153    1
   175   156   157    1
   176   156   153    1
   177   156   147    1
   178   158   161    1
   179   159   158    1
   180   160   158    1
   181   161    62    1
   182   161   167    1
   183   161   175    1
   184   162   163    1
   185   162   158    1
   186   162   164    1
   187   162   178    1
   188   164   170    1
   189   165   164    1
   190   166   164    1
   191   167   168    1
   192   169   167    1
   193   170   167    1
   194   170   171    1
   195   170   172    1
   196   172   174    1
   197   173   172    1
   198   175   177    1
   199   176   175    1
   200   178   181    1
   201   179   178    1
   202   180   178    1
   203   181   175    1
   204   181   172    1
   205   181   182    1
