@<TRIPOS>MOLECULE
RhRh_Ad-O2C4_C2_sp
 114 129 0 0 0
SMALL
GASTEIGER

@<TRIPOS>ATOM
      1 Rh          0.0003   -0.0326   -1.1935 Rh      1  UNL1        0.0000
      2 Rh          0.0002    0.0325    1.1935 Rh      1  UNL1        0.0000
      3 C          -1.8715    1.8588   -0.0554 C.3     1  UNL1        0.0000
      4 C           1.8720   -1.8589    0.0554 C.3     1  UNL1        0.0000
      5 C          -1.8713   -1.8591    0.0555 C.3     1  UNL1        0.0000
      6 C           1.8717    1.8591   -0.0555 C.3     1  UNL1        0.0000
      7 O           1.4547    1.4198   -1.1745 O.3     1  UNL1        0.0000
      8 O           1.4549    1.4794    1.0881 O.3     1  UNL1        0.0000
      9 O          -1.4546   -1.4195    1.1745 O.3     1  UNL1        0.0000
     10 O          -1.4542   -1.4798   -1.0881 O.3     1  UNL1        0.0000
     11 O          -1.4547    1.4193   -1.1744 O.3     1  UNL1        0.0000
     12 O          -1.4544    1.4796    1.0881 O.3     1  UNL1        0.0000
     13 O           1.4548   -1.4197    1.1744 O.3     1  UNL1        0.0000
     14 O           1.4553   -1.4792   -1.0881 O.3     1  UNL1        0.0000
     15 C           3.9499    5.6342   -0.6904 C.3     1  UNL1        0.0000
     16 C           4.4757    4.3916   -1.4329 C.3     1  UNL1        0.0000
     17 C           3.5452    5.2439    0.7429 C.3     1  UNL1        0.0000
     18 C           2.4412    4.1739    0.6929 C.3     1  UNL1        0.0000
     19 C           3.3721    3.3197   -1.4893 C.3     1  UNL1        0.0000
     20 C           2.9591    2.9204   -0.0592 C.3     1  UNL1        0.0000
     21 C           4.1970    2.3656    0.6936 C.3     1  UNL1        0.0000
     22 C           5.7018    3.8300   -0.6893 C.3     1  UNL1        0.0000
     23 C           4.7699    4.6791    1.4868 C.3     1  UNL1        0.0000
     24 C           5.2990    3.4378    0.7439 C.3     1  UNL1        0.0000
     25 C           2.4415   -4.1737   -0.6929 C.3     1  UNL1        0.0000
     26 C           3.5455   -5.2437   -0.7428 C.3     1  UNL1        0.0000
     27 C           2.9595   -2.9202    0.0592 C.3     1  UNL1        0.0000
     28 C           3.3724   -3.3194    1.4893 C.3     1  UNL1        0.0000
     29 C           3.9502   -5.6339    0.6905 C.3     1  UNL1        0.0000
     30 C           4.4760   -4.3913    1.4329 C.3     1  UNL1        0.0000
     31 C           5.7021   -3.8297    0.6893 C.3     1  UNL1        0.0000
     32 C           4.7702   -4.6790   -1.4867 C.3     1  UNL1        0.0000
     33 C           4.1973   -2.3655   -0.6937 C.3     1  UNL1        0.0000
     34 C           5.2992   -3.4376   -0.7440 C.3     1  UNL1        0.0000
     35 C          -3.3723   -3.3191    1.4892 C.3     1  UNL1        0.0000
     36 C          -4.4762   -4.3906    1.4329 C.3     1  UNL1        0.0000
     37 C          -2.9591   -2.9200    0.0592 C.3     1  UNL1        0.0000
     38 C          -2.4416   -4.1737   -0.6929 C.3     1  UNL1        0.0000
     39 C          -3.9509   -5.6334    0.6904 C.3     1  UNL1        0.0000
     40 C          -3.5460   -5.2433   -0.7429 C.3     1  UNL1        0.0000
     41 C          -4.7705   -4.6782   -1.4868 C.3     1  UNL1        0.0000
     42 C          -5.7021   -3.8286    0.6892 C.3     1  UNL1        0.0000
     43 C          -4.1967   -2.3648   -0.6937 C.3     1  UNL1        0.0000
     44 C          -5.2991   -3.4366   -0.7440 C.3     1  UNL1        0.0000
     45 C          -3.3722    3.3190   -1.4892 C.3     1  UNL1        0.0000
     46 C          -4.4761    4.3906   -1.4329 C.3     1  UNL1        0.0000
     47 C          -2.9592    2.9199   -0.0592 C.3     1  UNL1        0.0000
     48 C          -2.4417    4.1734    0.6931 C.3     1  UNL1        0.0000
     49 C          -3.9508    5.6333   -0.6903 C.3     1  UNL1        0.0000
     50 C          -3.5461    5.2431    0.7430 C.3     1  UNL1        0.0000
     51 C          -4.7707    4.6780    1.4868 C.3     1  UNL1        0.0000
     52 C          -5.7021    3.8286   -0.6894 C.3     1  UNL1        0.0000
     53 C          -4.1970    2.3647    0.6936 C.3     1  UNL1        0.0000
     54 C          -5.2993    3.4365    0.7439 C.3     1  UNL1        0.0000
     55 H           3.0875    6.0536   -1.2237 H       1  UNL1        0.0000
     56 H           4.7226    6.4127   -0.6641 H       1  UNL1        0.0000
     57 H           4.7596    4.6665   -2.4556 H       1  UNL1        0.0000
     58 H           3.1654    6.1251    1.2738 H       1  UNL1        0.0000
     59 H           1.5545    4.5667    0.1790 H       1  UNL1        0.0000
     60 H           2.1317    3.8873    1.7024 H       1  UNL1        0.0000
     61 H           3.7235    2.4356   -2.0314 H       1  UNL1        0.0000
     62 H           2.4993    3.6963   -2.0331 H       1  UNL1        0.0000
     63 H           3.9009    2.0649    1.7031 H       1  UNL1        0.0000
     64 H           4.5636    1.4680    0.1789 H       1  UNL1        0.0000
     65 H           6.5025    4.5795   -0.6628 H       1  UNL1        0.0000
     66 H           6.0960    2.9554   -1.2219 H       1  UNL1        0.0000
     67 H           5.5559    5.4421    1.5487 H       1  UNL1        0.0000
     68 H           4.4957    4.4135    2.5152 H       1  UNL1        0.0000
     69 H           6.1682    3.0324    1.2756 H       1  UNL1        0.0000
     70 H           1.5547   -4.5664   -0.1788 H       1  UNL1        0.0000
     71 H           2.1320   -3.8871   -1.7024 H       1  UNL1        0.0000
     72 H           3.1656   -6.1250   -1.2736 H       1  UNL1        0.0000
     73 H           2.4997   -3.6959    2.0331 H       1  UNL1        0.0000
     74 H           3.7239   -2.4353    2.0314 H       1  UNL1        0.0000
     75 H           4.7228   -6.4124    0.6642 H       1  UNL1        0.0000
     76 H           3.0878   -6.0533    1.2239 H       1  UNL1        0.0000
     77 H           4.7599   -4.6662    2.4557 H       1  UNL1        0.0000
     78 H           6.0963   -2.9551    1.2218 H       1  UNL1        0.0000
     79 H           6.5028   -4.5793    0.6628 H       1  UNL1        0.0000
     80 H           4.4959   -4.4135   -2.5152 H       1  UNL1        0.0000
     81 H           5.5561   -5.4420   -1.5486 H       1  UNL1        0.0000
     82 H           3.9011   -2.0648   -1.7032 H       1  UNL1        0.0000
     83 H           4.5640   -1.4678   -0.1791 H       1  UNL1        0.0000
     84 H           6.1685   -3.0323   -1.2757 H       1  UNL1        0.0000
     85 H          -2.4996   -3.6960    2.0331 H       1  UNL1        0.0000
     86 H          -3.7234   -2.4349    2.0314 H       1  UNL1        0.0000
     87 H          -4.7603   -4.6655    2.4556 H       1  UNL1        0.0000
     88 H          -1.5550   -4.5668   -0.1789 H       1  UNL1        0.0000
     89 H          -2.1320   -3.8872   -1.7024 H       1  UNL1        0.0000
     90 H          -4.7238   -6.4116    0.6641 H       1  UNL1        0.0000
     91 H          -3.0887   -6.0531    1.2237 H       1  UNL1        0.0000
     92 H          -3.1665   -6.1247   -1.2738 H       1  UNL1        0.0000
     93 H          -4.4961   -4.4126   -2.5153 H       1  UNL1        0.0000
     94 H          -5.5567   -5.4408   -1.5487 H       1  UNL1        0.0000
     95 H          -6.0960   -2.9539    1.2218 H       1  UNL1        0.0000
     96 H          -6.5031   -4.5778    0.6627 H       1  UNL1        0.0000
     97 H          -4.5631   -1.4671   -0.1790 H       1  UNL1        0.0000
     98 H          -3.9005   -2.0642   -1.7032 H       1  UNL1        0.0000
     99 H          -6.1682   -3.0309   -1.2758 H       1  UNL1        0.0000
    100 H          -2.4996    3.6959   -2.0330 H       1  UNL1        0.0000
    101 H          -3.7233    2.4349   -2.0314 H       1  UNL1        0.0000
    102 H          -4.7601    4.6655   -2.4556 H       1  UNL1        0.0000
    103 H          -1.5551    4.5665    0.1791 H       1  UNL1        0.0000
    104 H          -2.1322    3.8869    1.7026 H       1  UNL1        0.0000
    105 H          -4.7237    6.4116   -0.6640 H       1  UNL1        0.0000
    106 H          -3.0885    6.0530   -1.2235 H       1  UNL1        0.0000
    107 H          -3.1665    6.1244    1.2739 H       1  UNL1        0.0000
    108 H          -4.4964    4.4124    2.5153 H       1  UNL1        0.0000
    109 H          -5.5568    5.4407    1.5487 H       1  UNL1        0.0000
    110 H          -6.0960    2.9539   -1.2220 H       1  UNL1        0.0000
    111 H          -6.5031    4.5778   -0.6629 H       1  UNL1        0.0000
    112 H          -4.5633    1.4669    0.1788 H       1  UNL1        0.0000
    113 H          -3.9008    2.0640    1.7031 H       1  UNL1        0.0000
    114 H          -6.1684    3.0308    1.2755 H       1  UNL1        0.0000
@<TRIPOS>BOND
     1     1     7    1
     2     1    11    1
     3     1    14    1
     4     1    10    1
     5     1     2    1
     6     3    11    1
     7     3    12    1
     8     4    14    1
     9     4    27    1
    10     4    13    1
    11     5    10    1
    12     5    37    1
    13     5     9    1
    14     6     7    1
    15     6     8    1
    16     8     2    1
    17     9     2    1
    18    12     2    1
    19    13     2    1
    20    15    56    1
    21    15    17    1
    22    16    57    1
    23    16    15    1
    24    16    22    1
    25    17    58    1
    26    17    23    1
    27    18    17    1
    28    18    60    1
    29    19    16    1
    30    20    19    1
    31    20     6    1
    32    20    18    1
    33    20    21    1
    34    21    24    1
    35    21    63    1
    36    22    65    1
    37    22    24    1
    38    23    67    1
    39    23    68    1
    40    24    69    1
    41    24    23    1
    42    25    70    1
    43    25    27    1
    44    26    72    1
    45    26    25    1
    46    26    29    1
    47    27    33    1
    48    27    28    1
    49    28    74    1
    50    28    73    1
    51    29    76    1
    52    29    30    1
    53    30    28    1
    54    30    77    1
    55    31    78    1
    56    31    30    1
    57    32    34    1
    58    32    26    1
    59    33    83    1
    60    34    84    1
    61    34    33    1
    62    34    31    1
    63    35    86    1
    64    35    85    1
    65    36    35    1
    66    36    87    1
    67    37    43    1
    68    37    35    1
    69    38    88    1
    70    38    37    1
    71    39    91    1
    72    39    36    1
    73    40    92    1
    74    40    38    1
    75    40    39    1
    76    41    44    1
    77    41    40    1
    78    42    95    1
    79    42    36    1
    80    43    97    1
    81    44    99    1
    82    44    43    1
    83    44    42    1
    84    45    46    1
    85    46   102    1
    86    46    49    1
    87    46    52    1
    88    47    45    1
    89    47     3    1
    90    47    48    1
    91    47    53    1
    92    48    50    1
    93    48   104    1
    94    49   105    1
    95    49    50    1
    96    50   107    1
    97    50    51    1
    98    51   109    1
    99    51   108    1
   100    52   111    1
   101    52    54    1
   102    53    54    1
   103    53   113    1
   104    54   114    1
   105    54    51    1
   106    55    15    1
   107    59    18    1
   108    61    19    1
   109    62    19    1
   110    64    21    1
   111    66    22    1
   112    71    25    1
   113    75    29    1
   114    79    31    1
   115    80    32    1
   116    81    32    1
   117    82    33    1
   118    89    38    1
   119    90    39    1
   120    93    41    1
   121    94    41    1
   122    96    42    1
   123    98    43    1
   124   100    45    1
   125   101    45    1
   126   103    48    1
   127   106    49    1
   128   110    52    1
   129   112    53    1
