@<TRIPOS>MOLECULE
RhRh_pOMe-PhO2C4_3_sp
 74 81 0 0 0
SMALL
GASTEIGER

@<TRIPOS>ATOM
      1 Rh         -0.0001    0.0611   -1.1914 Rh      1  UNL1        0.0000
      2 Rh         -0.0001   -0.0611    1.1914 Rh      1  UNL1        0.0000
      3 C           1.8674   -1.8633   -0.0957 C.3     1  UNL1        0.0000
      4 C          -1.8675    1.8633    0.0957 C.3     1  UNL1        0.0000
      5 C          -1.8679   -1.8628   -0.0956 C.3     1  UNL1        0.0000
      6 C           1.8678    1.8628    0.0956 C.3     1  UNL1        0.0000
      7 O          -1.4518   -1.3901   -1.2071 O.3     1  UNL1        0.0000
      8 O          -1.4522   -1.5071    1.0589 O.3     1  UNL1        0.0000
      9 O           1.4519    1.3899    1.2071 O.3     1  UNL1        0.0000
     10 O           1.4519    1.5073   -1.0589 O.3     1  UNL1        0.0000
     11 O           1.4516   -1.3902   -1.2071 O.3     1  UNL1        0.0000
     12 O           1.4514   -1.5078    1.0588 O.3     1  UNL1        0.0000
     13 O          -1.4513    1.3906    1.2071 O.3     1  UNL1        0.0000
     14 O          -1.4518    1.5075   -1.0589 O.3     1  UNL1        0.0000
     15 C          -2.9165   -2.9068   -0.1514 C.ar    1  UNL1        0.0000
     16 C          -3.4150   -3.3490   -1.3880 C.ar    1  UNL1        0.0000
     17 C          -4.3953   -4.3244   -1.4405 C.ar    1  UNL1        0.0000
     18 C          -4.8992   -4.8795   -0.2530 C.ar    1  UNL1        0.0000
     19 C          -4.4089   -4.4456    0.9862 C.ar    1  UNL1        0.0000
     20 C          -3.4226   -3.4641    1.0266 C.ar    1  UNL1        0.0000
     21 C           2.9165    2.9067    0.1513 C.ar    1  UNL1        0.0000
     22 C           3.4150    3.3488    1.3879 C.ar    1  UNL1        0.0000
     23 C           4.3954    4.3242    1.4405 C.ar    1  UNL1        0.0000
     24 C           4.8993    4.8793    0.2530 C.ar    1  UNL1        0.0000
     25 C           4.4089    4.4455   -0.9862 C.ar    1  UNL1        0.0000
     26 C           3.4226    3.4640   -1.0266 C.ar    1  UNL1        0.0000
     27 C           2.9160   -2.9072   -0.1514 C.ar    1  UNL1        0.0000
     28 C           3.4147   -3.3492   -1.3880 C.ar    1  UNL1        0.0000
     29 C           4.3951   -4.3245   -1.4405 C.ar    1  UNL1        0.0000
     30 C           4.8989   -4.8796   -0.2530 C.ar    1  UNL1        0.0000
     31 C           4.4085   -4.4459    0.9862 C.ar    1  UNL1        0.0000
     32 C           3.4222   -3.4644    1.0266 C.ar    1  UNL1        0.0000
     33 C          -2.9160    2.9072    0.1514 C.ar    1  UNL1        0.0000
     34 C          -3.4146    3.3494    1.3880 C.ar    1  UNL1        0.0000
     35 C          -4.3949    4.3248    1.4405 C.ar    1  UNL1        0.0000
     36 C          -4.8988    4.8799    0.2530 C.ar    1  UNL1        0.0000
     37 C          -4.4085    4.4460   -0.9862 C.ar    1  UNL1        0.0000
     38 C          -3.4222    3.4645   -1.0266 C.ar    1  UNL1        0.0000
     39 C           6.4071   -6.4275    0.7557 C.3     1  UNL1        0.0000
     40 C          -6.4073   -6.4274    0.7557 C.3     1  UNL1        0.0000
     41 C          -6.4070    6.4277   -0.7557 C.3     1  UNL1        0.0000
     42 C           6.4074    6.4272   -0.7557 C.3     1  UNL1        0.0000
     43 H          -3.0193   -2.9141   -2.2980 H       1  UNL1        0.0000
     44 H          -4.7925   -4.6789   -2.3851 H       1  UNL1        0.0000
     45 H          -4.7853   -4.8617    1.9121 H       1  UNL1        0.0000
     46 H           3.0194    2.9139    2.2980 H       1  UNL1        0.0000
     47 H           4.7927    4.6787    2.3851 H       1  UNL1        0.0000
     48 H           4.7853    4.8616   -1.9121 H       1  UNL1        0.0000
     49 H           3.0341    3.1188   -1.9775 H       1  UNL1        0.0000
     50 H           3.0191   -2.9142   -2.2980 H       1  UNL1        0.0000
     51 H           4.7924   -4.6790   -2.3851 H       1  UNL1        0.0000
     52 H           4.7849   -4.8620    1.9121 H       1  UNL1        0.0000
     53 H           3.0337   -3.1192    1.9775 H       1  UNL1        0.0000
     54 H          -3.0189    2.9145    2.2981 H       1  UNL1        0.0000
     55 H          -4.7922    4.6793    2.3851 H       1  UNL1        0.0000
     56 H          -4.7849    4.8620   -1.9121 H       1  UNL1        0.0000
     57 H           7.1458   -7.1482    0.4042 H       1  UNL1        0.0000
     58 H           6.9000   -5.6847    1.3947 H       1  UNL1        0.0000
     59 H           5.6389   -6.9500    1.3387 H       1  UNL1        0.0000
     60 H          -7.1460   -7.1482    0.4041 H       1  UNL1        0.0000
     61 H          -5.6391   -6.9498    1.3387 H       1  UNL1        0.0000
     62 H          -6.9004   -5.6845    1.3945 H       1  UNL1        0.0000
     63 H          -6.9000    5.6849   -1.3945 H       1  UNL1        0.0000
     64 H          -7.1456    7.1485   -0.4041 H       1  UNL1        0.0000
     65 H          -5.6388    6.9502   -1.3387 H       1  UNL1        0.0000
     66 H           5.6392    6.9496   -1.3387 H       1  UNL1        0.0000
     67 H           7.1461    7.1479   -0.4041 H       1  UNL1        0.0000
     68 H           6.9004    5.6843   -1.3946 H       1  UNL1        0.0000
     69 O           5.8589   -5.8295   -0.4098 O.3     1  UNL1        0.0000
     70 O           5.8592    5.8292    0.4099 O.3     1  UNL1        0.0000
     71 O          -5.8587    5.8298    0.4099 O.3     1  UNL1        0.0000
     72 O          -5.8590   -5.8295   -0.4099 O.3     1  UNL1        0.0000
     73 H          -3.0343   -3.1188    1.9775 H       1  UNL1        0.0000
     74 H          -3.0338    3.1192   -1.9775 H       1  UNL1        0.0000
@<TRIPOS>BOND
     1     1    10    1
     2     1    14    1
     3     1     2    1
     4     2     9    1
     5     2    13    1
     6     3    12    1
     7     4    33    1
     8     4    13    1
     9     5     8    1
    10     6    21    1
    11     6     9    1
    12     7     1    1
    13     7     5    1
    14     8     2    1
    15    10     6    1
    16    11     1    1
    17    11     3    1
    18    12     2    1
    19    14     4    1
    20    15     5    1
    21    15    20   ar
    22    16    15   ar
    23    17    16   ar
    24    17    18   ar
    25    18    19   ar
    26    19    20   ar
    27    19    45    1
    28    20    73    1
    29    21    22   ar
    30    22    23   ar
    31    22    46    1
    32    23    47    1
    33    24    70    1
    34    24    23   ar
    35    25    24   ar
    36    26    25   ar
    37    26    21   ar
    38    27     3    1
    39    27    32   ar
    40    28    27   ar
    41    29    28   ar
    42    29    30   ar
    43    30    31   ar
    44    31    32   ar
    45    31    52    1
    46    32    53    1
    47    33    34   ar
    48    34    35   ar
    49    34    54    1
    50    35    55    1
    51    36    71    1
    52    36    35   ar
    53    37    36   ar
    54    38    37   ar
    55    38    33   ar
    56    39    59    1
    57    39    58    1
    58    40    61    1
    59    40    62    1
    60    41    64    1
    61    41    71    1
    62    42    67    1
    63    42    70    1
    64    43    16    1
    65    44    17    1
    66    48    25    1
    67    49    26    1
    68    50    28    1
    69    51    29    1
    70    56    37    1
    71    57    39    1
    72    60    40    1
    73    63    41    1
    74    65    41    1
    75    66    42    1
    76    68    42    1
    77    69    30    1
    78    69    39    1
    79    72    18    1
    80    72    40    1
    81    74    38    1
