@<TRIPOS>MOLECULE
RhRh_ACyPentyl4_17_sp
 126 141 0 0 0
SMALL
GASTEIGER

@<TRIPOS>ATOM
      1 Rh          0.5926    0.3822   -1.5209 Rh      1  UNL1        0.0000
      2 Rh         -0.0117   -0.4482    0.6400 Rh      1  UNL1        0.0000
      3 C           1.9818   -2.0233   -0.7308 C.3     1  UNL1        0.0000
      4 C           2.1094    1.4910    0.6813 C.3     1  UNL1        0.0000
      5 C          -1.4665    1.9010   -0.1812 C.3     1  UNL1        0.0000
      6 C          -1.6032   -1.4810   -1.5591 C.3     1  UNL1        0.0000
      7 O           1.8772   -1.2194   -1.7061 O.3     1  UNL1        0.0000
      8 O           1.3099   -1.9951    0.3470 O.3     1  UNL1        0.0000
      9 O          -0.9004   -0.7620   -2.3378 O.3     1  UNL1        0.0000
     10 O          -1.5047   -1.5309   -0.2960 O.3     1  UNL1        0.0000
     11 O          -1.2828    1.1491    0.8261 O.3     1  UNL1        0.0000
     12 O          -0.7841    1.8863   -1.2527 O.3     1  UNL1        0.0000
     13 O           1.4706    0.7122    1.4544 O.3     1  UNL1        0.0000
     14 O           2.0325    1.5149   -0.5862 O.3     1  UNL1        0.0000
     15 N           3.7242   -3.3620    0.2943 N.am    1  UNL1        0.0000
     16 N          -3.8325   -2.4872   -1.4411 N.am    1  UNL1        0.0000
     17 N          -3.4744    2.5048    1.0264 N.am    1  UNL1        0.0000
     18 N           3.2452    3.6036    0.3823 N.am    1  UNL1        0.0000
     19 C           2.8968   -3.2446   -0.9138 C.3     1  UNL1        0.0000
     20 C           3.7785   -3.1689   -2.1891 C.3     1  UNL1        0.0000
     21 C           3.0347   -4.0011   -3.2406 C.3     1  UNL1        0.0000
     22 C           2.4448   -5.1543   -2.4155 C.3     1  UNL1        0.0000
     23 C           1.9353   -4.4682   -1.1418 C.3     1  UNL1        0.0000
     24 C           4.2653   -4.5465    0.8319 C.2     1  UNL1        0.0000
     25 C           5.1481   -4.1118    1.9541 C.ar    1  UNL1        0.0000
     26 C           5.8830   -4.8705    2.8505 C.ar    1  UNL1        0.0000
     27 C           6.6524   -4.1802    3.7960 C.ar    1  UNL1        0.0000
     28 C           6.6804   -2.7807    3.8230 C.ar    1  UNL1        0.0000
     29 C           5.9386   -2.0235    2.9074 C.ar    1  UNL1        0.0000
     30 C           5.1726   -2.7176    1.9840 C.ar    1  UNL1        0.0000
     31 C           4.2995   -2.2242    0.8870 C.2     1  UNL1        0.0000
     32 C          -2.5923   -2.4551   -2.2231 C.3     1  UNL1        0.0000
     33 C          -2.8297   -2.1213   -3.7180 C.3     1  UNL1        0.0000
     34 C          -1.6598   -2.7723   -4.4966 C.3     1  UNL1        0.0000
     35 C          -0.9134   -3.6693   -3.4810 C.3     1  UNL1        0.0000
     36 C          -1.8840   -3.8375   -2.3060 C.3     1  UNL1        0.0000
     37 C          -4.8827   -1.5540   -1.6197 C.2     1  UNL1        0.0000
     38 C          -5.8818   -1.8561   -0.5568 C.ar    1  UNL1        0.0000
     39 C          -7.1120   -1.2721   -0.2993 C.ar    1  UNL1        0.0000
     40 C          -7.8443   -1.7684    0.7857 C.ar    1  UNL1        0.0000
     41 C          -7.3476   -2.8138    1.5768 C.ar    1  UNL1        0.0000
     42 C          -6.0993   -3.3897    1.3100 C.ar    1  UNL1        0.0000
     43 C          -5.3846   -2.8879    0.2319 C.ar    1  UNL1        0.0000
     44 C          -4.0470   -3.2838   -0.2934 C.2     1  UNL1        0.0000
     45 C          -2.6404    2.8912   -0.1173 C.3     1  UNL1        0.0000
     46 C          -2.1452    4.3591   -0.0660 C.3     1  UNL1        0.0000
     47 C          -1.7687    4.6835   -1.5181 C.3     1  UNL1        0.0000
     48 C          -2.7246    3.8432   -2.4037 C.3     1  UNL1        0.0000
     49 C          -3.4420    2.8596   -1.4516 C.3     1  UNL1        0.0000
     50 C          -4.0684    1.2258    1.0528 C.2     1  UNL1        0.0000
     51 C          -4.5931    1.0285    2.4266 C.ar    1  UNL1        0.0000
     52 C          -5.3085   -0.0281    2.9686 C.ar    1  UNL1        0.0000
     53 C          -5.6498    0.0617    4.3232 C.ar    1  UNL1        0.0000
     54 C          -5.2776    1.1718    5.0926 C.ar    1  UNL1        0.0000
     55 C          -4.5494    2.2291    4.5329 C.ar    1  UNL1        0.0000
     56 C          -4.2195    2.1319    3.1900 C.ar    1  UNL1        0.0000
     57 C          -3.4381    3.0644    2.3254 C.2     1  UNL1        0.0000
     58 C           3.0417    2.5182    1.3484 C.3     1  UNL1        0.0000
     59 C           4.3557    1.8480    1.8265 C.3     1  UNL1        0.0000
     60 C           3.9583    1.1440    3.1307 C.3     1  UNL1        0.0000
     61 C           2.8642    2.0326    3.7733 C.3     1  UNL1        0.0000
     62 C           2.4286    3.0351    2.6799 C.3     1  UNL1        0.0000
     63 C           4.3170    3.7178   -0.5351 C.2     1  UNL1        0.0000
     64 C           3.8953    4.7521   -1.5241 C.ar    1  UNL1        0.0000
     65 C           4.5862    5.2855   -2.6010 C.ar    1  UNL1        0.0000
     66 C           3.9193    6.2354   -3.3843 C.ar    1  UNL1        0.0000
     67 C           2.6070    6.6263   -3.0878 C.ar    1  UNL1        0.0000
     68 C           1.9188    6.0807   -1.9975 C.ar    1  UNL1        0.0000
     69 C           2.5910    5.1418   -1.2293 C.ar    1  UNL1        0.0000
     70 C           2.1395    4.3669   -0.0459 C.2     1  UNL1        0.0000
     71 H           3.9683   -2.1371   -2.4842 H       1  UNL1        0.0000
     72 H           4.7364   -3.6450   -1.9570 H       1  UNL1        0.0000
     73 H           3.6913   -4.3371   -4.0482 H       1  UNL1        0.0000
     74 H           2.2326   -3.4050   -3.6898 H       1  UNL1        0.0000
     75 H           3.2312   -5.8691   -2.1521 H       1  UNL1        0.0000
     76 H           1.6510   -5.6978   -2.9358 H       1  UNL1        0.0000
     77 H           1.9014   -5.1226   -0.2743 H       1  UNL1        0.0000
     78 H           0.9248   -4.0853   -1.2989 H       1  UNL1        0.0000
     79 H           5.8583   -5.9541    2.8128 H       1  UNL1        0.0000
     80 H           7.2405   -4.7376    4.5181 H       1  UNL1        0.0000
     81 H           7.2906   -2.2753    4.5648 H       1  UNL1        0.0000
     82 H           5.9575   -0.9401    2.9150 H       1  UNL1        0.0000
     83 H          -3.7825   -2.5728   -4.0042 H       1  UNL1        0.0000
     84 H          -2.9156   -1.0511   -3.8848 H       1  UNL1        0.0000
     85 H          -0.9925   -2.0132   -4.9097 H       1  UNL1        0.0000
     86 H          -2.0446   -3.3595   -5.3357 H       1  UNL1        0.0000
     87 H          -0.6113   -4.6336   -3.8984 H       1  UNL1        0.0000
     88 H          -0.0052   -3.1642   -3.1426 H       1  UNL1        0.0000
     89 H          -1.4166   -4.1265   -1.3663 H       1  UNL1        0.0000
     90 H          -2.6498   -4.5850   -2.5371 H       1  UNL1        0.0000
     91 H          -5.6969   -4.1947    1.9155 H       1  UNL1        0.0000
     92 H          -1.3282    4.5138    0.6345 H       1  UNL1        0.0000
     93 H          -2.9899    4.9701    0.2622 H       1  UNL1        0.0000
     94 H          -1.8491    5.7580   -1.7109 H       1  UNL1        0.0000
     95 H          -0.7328    4.3913   -1.6981 H       1  UNL1        0.0000
     96 H          -3.4563    4.4701   -2.9219 H       1  UNL1        0.0000
     97 H          -2.1632    3.3001   -3.1665 H       1  UNL1        0.0000
     98 H          -4.4489    3.2152   -1.2118 H       1  UNL1        0.0000
     99 H          -3.5404    1.8524   -1.8530 H       1  UNL1        0.0000
    100 H          -5.5838   -0.8847    2.3668 H       1  UNL1        0.0000
    101 H          -6.2092   -0.7445    4.7876 H       1  UNL1        0.0000
    102 H          -5.5546    1.2085    6.1415 H       1  UNL1        0.0000
    103 H          -4.2463    3.0901    5.1186 H       1  UNL1        0.0000
    104 H           5.0745    2.6491    2.0186 H       1  UNL1        0.0000
    105 H           4.7858    1.1782    1.0855 H       1  UNL1        0.0000
    106 H           3.5548    0.1557    2.9017 H       1  UNL1        0.0000
    107 H           4.8238    1.0059    3.7865 H       1  UNL1        0.0000
    108 H           3.2421    2.5673    4.6498 H       1  UNL1        0.0000
    109 H           2.0183    1.4254    4.1015 H       1  UNL1        0.0000
    110 H           1.3501    3.1576    2.6091 H       1  UNL1        0.0000
    111 H           2.8627    4.0229    2.8611 H       1  UNL1        0.0000
    112 H           0.9007    6.3683   -1.7604 H       1  UNL1        0.0000
    113 O           1.0362    4.3491    0.4642 O.2     1  UNL1        0.0000
    114 O           5.3628    3.1048   -0.5157 O.2     1  UNL1        0.0000
    115 O          -2.8859    4.0891    2.6653 O.2     1  UNL1        0.0000
    116 O          -4.1013    0.4522    0.1173 O.2     1  UNL1        0.0000
    117 O          -3.3049   -4.1307    0.1576 O.2     1  UNL1        0.0000
    118 O          -4.9498   -0.7046   -2.4816 O.2     1  UNL1        0.0000
    119 O           4.1050   -1.0818    0.5179 O.2     1  UNL1        0.0000
    120 O           4.0715   -5.6786    0.4362 O.2     1  UNL1        0.0000
    121 H          -7.4794   -0.4598   -0.9164 H       1  UNL1        0.0000
    122 H          -8.8118   -1.3371    1.0222 H       1  UNL1        0.0000
    123 H          -7.9401   -3.1777    2.4105 H       1  UNL1        0.0000
    124 H           5.5993    4.9683   -2.8229 H       1  UNL1        0.0000
    125 H           4.4239    6.6750   -4.2388 H       1  UNL1        0.0000
    126 H           2.1167    7.3623   -3.7171 H       1  UNL1        0.0000
@<TRIPOS>BOND
     1     1    12    1
     2     1    14    1
     3     1     2    1
     4     2    11    1
     5     2    13    1
     6     3     8    1
     7     4    58    1
     8     4    13    1
     9     5    45    1
    10     5    11    1
    11     6    10    1
    12     7     1    1
    13     7     3    1
    14     8     2    1
    15     9     6    1
    16     9     1    1
    17    10     2    1
    18    12     5    1
    19    14     4    1
    20    15    24   am
    21    15    31   am
    22    16    44   am
    23    17    50   am
    24    17    57   am
    25    18    58    1
    26    19     3    1
    27    19    15    1
    28    20    72    1
    29    20    19    1
    30    21    22    1
    31    21    20    1
    32    22    75    1
    33    22    23    1
    34    23    19    1
    35    23    77    1
    36    24    25    1
    37    25    30   ar
    38    25    26   ar
    39    26    27   ar
    40    27    28   ar
    41    27    80    1
    42    28    81    1
    43    29    82    1
    44    29    28   ar
    45    30    29   ar
    46    31    30    1
    47    32     6    1
    48    32    16    1
    49    33    32    1
    50    34    33    1
    51    34    35    1
    52    35    88    1
    53    35    36    1
    54    36    32    1
    55    36    89    1
    56    37    16   am
    57    37    38    1
    58    38    39   ar
    59    38    43   ar
    60    39    40   ar
    61    40   122    1
    62    40    41   ar
    63    41   123    1
    64    42    41   ar
    65    42    91    1
    66    43    42   ar
    67    44   117    2
    68    44    43    1
    69    45    46    1
    70    45    17    1
    71    46    93    1
    72    46    92    1
    73    47    46    1
    74    48    47    1
    75    48    49    1
    76    49    98    1
    77    49    45    1
    78    50    51    1
    79    51    52   ar
    80    51    56   ar
    81    52    53   ar
    82    53   101    1
    83    53    54   ar
    84    54   102    1
    85    55    54   ar
    86    55   103    1
    87    56    55   ar
    88    57   115    2
    89    57    56    1
    90    58    59    1
    91    58    62    1
    92    59   104    1
    93    59    60    1
    94    60    61    1
    95    60   107    1
    96    61   109    1
    97    61   108    1
    98    62   111    1
    99    62    61    1
   100    63   114    2
   101    63    18   am
   102    64    69   ar
   103    64    63    1
   104    65    64   ar
   105    66    67   ar
   106    66    65   ar
   107    67    68   ar
   108    68   112    1
   109    68    69   ar
   110    69    70    1
   111    70    18   am
   112    70   113    2
   113    71    20    1
   114    73    21    1
   115    74    21    1
   116    76    22    1
   117    78    23    1
   118    79    26    1
   119    83    33    1
   120    84    33    1
   121    85    34    1
   122    86    34    1
   123    87    35    1
   124    90    36    1
   125    94    47    1
   126    95    47    1
   127    96    48    1
   128    97    48    1
   129    99    49    1
   130   100    52    1
   131   105    59    1
   132   106    60    1
   133   110    62    1
   134   116    50    2
   135   118    37    2
   136   119    31    2
   137   120    24    2
   138   121    39    1
   139   124    65    1
   140   125    66    1
   141   126    67    1
