@<TRIPOS>MOLECULE
RhRh_triPh-O2C4_5_sp
 150 165 0 0 0
SMALL
GASTEIGER

@<TRIPOS>ATOM
      1 Rh         -0.0004    0.0035    1.1931 Rh      1  UNL1        0.0000
      2 Rh         -0.0003   -0.0036   -1.1932 Rh      1  UNL1        0.0000
      3 C          -1.8781   -1.8478    0.0267 C.3     1  UNL1        0.0000
      4 C           1.8560   -1.8714   -0.0128 C.3     1  UNL1        0.0000
      5 C           1.8533    1.8739    0.0127 C.3     1  UNL1        0.0000
      6 C          -1.8806    1.8451   -0.0268 C.3     1  UNL1        0.0000
      7 O           1.4840   -1.4292    1.1173 O.3     1  UNL1        0.0000
      8 O           1.4062   -1.4794   -1.1357 O.3     1  UNL1        0.0000
      9 O           1.4041    1.4812    1.1356 O.3     1  UNL1        0.0000
     10 O           1.4820    1.4311   -1.1174 O.3     1  UNL1        0.0000
     11 O          -1.4930    1.4170    1.1031 O.3     1  UNL1        0.0000
     12 O          -1.4282    1.4563   -1.1487 O.3     1  UNL1        0.0000
     13 O          -1.4262   -1.4584    1.1486 O.3     1  UNL1        0.0000
     14 O          -1.4909   -1.4193   -1.1031 O.3     1  UNL1        0.0000
     15 C           2.9584   -2.9574   -0.0809 C.3     1  UNL1        0.0000
     16 C           2.5435   -3.9509   -1.1859 C.ar    1  UNL1        0.0000
     17 C           3.4530   -4.4375   -2.1254 C.ar    1  UNL1        0.0000
     18 C           3.0502   -5.3666   -3.0887 C.ar    1  UNL1        0.0000
     19 C           1.7342   -5.8206   -3.1243 C.ar    1  UNL1        0.0000
     20 C           0.8179   -5.3430   -2.1843 C.ar    1  UNL1        0.0000
     21 C           1.2215   -4.4187   -1.2260 C.ar    1  UNL1        0.0000
     22 C           4.2904   -2.2552   -0.4520 C.ar    1  UNL1        0.0000
     23 C           4.3346   -1.1341   -1.2916 C.ar    1  UNL1        0.0000
     24 C           5.5541   -0.5742   -1.6687 C.ar    1  UNL1        0.0000
     25 C           6.7529   -1.1295   -1.2283 C.ar    1  UNL1        0.0000
     26 C           6.7215   -2.2514   -0.4017 C.ar    1  UNL1        0.0000
     27 C           5.5023   -2.8052   -0.0139 C.ar    1  UNL1        0.0000
     28 C           3.0861   -3.6522    1.2881 C.ar    1  UNL1        0.0000
     29 C           2.8561   -5.0190    1.4552 C.ar    1  UNL1        0.0000
     30 C           2.9926   -5.6185    2.7113 C.ar    1  UNL1        0.0000
     31 C           3.3606   -4.8595    3.8181 C.ar    1  UNL1        0.0000
     32 C           3.6060   -3.4926    3.6589 C.ar    1  UNL1        0.0000
     33 C           3.4756   -2.9000    2.4081 C.ar    1  UNL1        0.0000
     34 C           2.9540    2.9616    0.0810 C.3     1  UNL1        0.0000
     35 C           3.0808    3.6568   -1.2880 C.ar    1  UNL1        0.0000
     36 C           2.8487    5.0232   -1.4549 C.ar    1  UNL1        0.0000
     37 C           2.9844    5.6231   -2.7110 C.ar    1  UNL1        0.0000
     38 C           3.3538    4.8649   -3.8178 C.ar    1  UNL1        0.0000
     39 C           3.6014    3.4983   -3.6587 C.ar    1  UNL1        0.0000
     40 C           3.4717    2.9053   -2.4080 C.ar    1  UNL1        0.0000
     41 C           4.2870    2.2614    0.4519 C.ar    1  UNL1        0.0000
     42 C           4.3329    1.1399    1.2909 C.ar    1  UNL1        0.0000
     43 C           5.5531    0.5818    1.6679 C.ar    1  UNL1        0.0000
     44 C           6.7511    1.1392    1.2281 C.ar    1  UNL1        0.0000
     45 C           6.7182    2.2615    0.4020 C.ar    1  UNL1        0.0000
     46 C           5.4981    2.8136    0.0143 C.ar    1  UNL1        0.0000
     47 C           2.5375    3.9543    1.1861 C.ar    1  UNL1        0.0000
     48 C           3.4459    4.4417    2.1261 C.ar    1  UNL1        0.0000
     49 C           3.0416    5.3699    3.0896 C.ar    1  UNL1        0.0000
     50 C           1.7250    5.8221    3.1250 C.ar    1  UNL1        0.0000
     51 C           0.8096    5.3436    2.1843 C.ar    1  UNL1        0.0000
     52 C           1.2149    4.4204    1.2258 C.ar    1  UNL1        0.0000
     53 C          -2.9739    2.9427   -0.0735 C.3     1  UNL1        0.0000
     54 C          -3.9568    2.6143   -1.2140 C.ar    1  UNL1        0.0000
     55 C          -4.2863    1.2889   -1.5283 C.ar    1  UNL1        0.0000
     56 C          -5.2392    0.9998   -2.5021 C.ar    1  UNL1        0.0000
     57 C          -5.8890    2.0359   -3.1744 C.ar    1  UNL1        0.0000
     58 C          -5.5762    3.3580   -2.8627 C.ar    1  UNL1        0.0000
     59 C          -4.6168    3.6439   -1.8907 C.ar    1  UNL1        0.0000
     60 C          -3.7015    2.9865    1.2839 C.ar    1  UNL1        0.0000
     61 C          -2.9880    3.2969    2.4544 C.ar    1  UNL1        0.0000
     62 C          -3.6232    3.3293    3.6910 C.ar    1  UNL1        0.0000
     63 C          -4.9900    3.0555    3.7892 C.ar    1  UNL1        0.0000
     64 C          -5.7086    2.7551    2.6358 C.ar    1  UNL1        0.0000
     65 C          -5.0684    2.7196    1.3929 C.ar    1  UNL1        0.0000
     66 C          -2.2410    4.2785   -0.3836 C.ar    1  UNL1        0.0000
     67 C          -2.5456    5.4562    0.3096 C.ar    1  UNL1        0.0000
     68 C          -1.9106    6.6583   -0.0102 C.ar    1  UNL1        0.0000
     69 C          -0.9597    6.7058   -1.0272 C.ar    1  UNL1        0.0000
     70 C          -0.6675    5.5443   -1.7417 C.ar    1  UNL1        0.0000
     71 C          -1.3077    4.3468   -1.4299 C.ar    1  UNL1        0.0000
     72 C          -2.9699   -2.9469    0.0734 C.3     1  UNL1        0.0000
     73 C          -3.6978   -2.9914   -1.2838 C.ar    1  UNL1        0.0000
     74 C          -2.9841   -3.3005   -2.4546 C.ar    1  UNL1        0.0000
     75 C          -3.6196   -3.3335   -3.6911 C.ar    1  UNL1        0.0000
     76 C          -4.9868   -3.0618   -3.7888 C.ar    1  UNL1        0.0000
     77 C          -5.7056   -2.7628   -2.6352 C.ar    1  UNL1        0.0000
     78 C          -5.0652   -2.7266   -1.3925 C.ar    1  UNL1        0.0000
     79 C          -2.2351   -4.2817    0.3830 C.ar    1  UNL1        0.0000
     80 C          -2.5385   -5.4597   -0.3102 C.ar    1  UNL1        0.0000
     81 C          -1.9019   -6.6610    0.0092 C.ar    1  UNL1        0.0000
     82 C          -0.9506   -6.7075    1.0260 C.ar    1  UNL1        0.0000
     83 C          -0.6598   -5.5457    1.7406 C.ar    1  UNL1        0.0000
     84 C          -1.3015   -4.3491    1.4292 C.ar    1  UNL1        0.0000
     85 C          -3.9530   -2.6199    1.2142 C.ar    1  UNL1        0.0000
     86 C          -4.2847   -1.2950    1.5281 C.ar    1  UNL1        0.0000
     87 C          -5.2377   -1.0073    2.5022 C.ar    1  UNL1        0.0000
     88 C          -5.8853   -2.0443    3.1751 C.ar    1  UNL1        0.0000
     89 C          -5.5704   -3.3660    2.8638 C.ar    1  UNL1        0.0000
     90 C          -4.6109   -3.6505    1.8914 C.ar    1  UNL1        0.0000
     91 H           4.4783   -4.0888   -2.1154 H       1  UNL1        0.0000
     92 H           3.7726   -5.7298   -3.8136 H       1  UNL1        0.0000
     93 H           1.4229   -6.5402   -3.8756 H       1  UNL1        0.0000
     94 H          -0.2095   -5.6909   -2.1845 H       1  UNL1        0.0000
     95 H           0.4998   -4.0692   -0.4974 H       1  UNL1        0.0000
     96 H           3.4167   -0.6941   -1.6570 H       1  UNL1        0.0000
     97 H           5.5632    0.3105   -2.2970 H       1  UNL1        0.0000
     98 H           7.7005   -0.6869   -1.5180 H       1  UNL1        0.0000
     99 H           7.6468   -2.6989   -0.0512 H       1  UNL1        0.0000
    100 H           5.4919   -3.6769    0.6294 H       1  UNL1        0.0000
    101 H           2.5651   -5.6257    0.6078 H       1  UNL1        0.0000
    102 H           2.8107   -6.6842    2.8151 H       1  UNL1        0.0000
    103 H           3.4642   -5.3245    4.7937 H       1  UNL1        0.0000
    104 H           3.9029   -2.8884    4.5109 H       1  UNL1        0.0000
    105 H           3.6762   -1.8424    2.2917 H       1  UNL1        0.0000
    106 H           2.5565    5.6294   -0.6075 H       1  UNL1        0.0000
    107 H           2.8009    6.6885   -2.8147 H       1  UNL1        0.0000
    108 H           3.4569    5.3301   -4.7933 H       1  UNL1        0.0000
    109 H           3.8995    2.8947   -4.5107 H       1  UNL1        0.0000
    110 H           3.6740    1.8481   -2.2917 H       1  UNL1        0.0000
    111 H           5.5635   -0.3033    2.2957 H       1  UNL1        0.0000
    112 H           7.6994    0.6979    1.5177 H       1  UNL1        0.0000
    113 H           7.6429    2.7106    0.0519 H       1  UNL1        0.0000
    114 H           5.4864    3.6856   -0.6285 H       1  UNL1        0.0000
    115 H           4.4717    4.0945    2.1164 H       1  UNL1        0.0000
    116 H           1.4124    6.5409    3.8764 H       1  UNL1        0.0000
    117 H          -0.2182    5.6902    2.1843 H       1  UNL1        0.0000
    118 H           0.4939    4.0701    0.4968 H       1  UNL1        0.0000
    119 H          -3.7905    0.4646   -1.0305 H       1  UNL1        0.0000
    120 H          -5.4620   -0.0366   -2.7329 H       1  UNL1        0.0000
    121 H          -6.6298    1.8135   -3.9364 H       1  UNL1        0.0000
    122 H          -6.0744    4.1736   -3.3782 H       1  UNL1        0.0000
    123 H          -4.3796    4.6757   -1.6585 H       1  UNL1        0.0000
    124 H          -1.9281    3.5118    2.3947 H       1  UNL1        0.0000
    125 H          -3.0490    3.5688    4.5809 H       1  UNL1        0.0000
    126 H          -5.4859    3.0816    4.7547 H       1  UNL1        0.0000
    127 H          -6.7732    2.5481    2.6923 H       1  UNL1        0.0000
    128 H          -5.6445    2.4812    0.5083 H       1  UNL1        0.0000
    129 H          -3.2821    5.4402    1.1026 H       1  UNL1        0.0000
    130 H          -2.1623    7.5568    0.5453 H       1  UNL1        0.0000
    131 H          -0.4558    7.6378   -1.2640 H       1  UNL1        0.0000
    132 H           0.0712    5.5593   -2.5357 H       1  UNL1        0.0000
    133 H          -1.0768    3.4572   -2.0000 H       1  UNL1        0.0000
    134 H          -1.9239   -3.5138   -2.3952 H       1  UNL1        0.0000
    135 H          -3.0452   -3.5718   -4.5812 H       1  UNL1        0.0000
    136 H          -5.4829   -3.0884   -4.7542 H       1  UNL1        0.0000
    137 H          -5.6413   -2.4893   -0.5076 H       1  UNL1        0.0000
    138 H          -3.2752   -5.4446   -1.1031 H       1  UNL1        0.0000
    139 H          -2.1526   -7.5598   -0.5463 H       1  UNL1        0.0000
    140 H          -0.4455   -7.6389    1.2626 H       1  UNL1        0.0000
    141 H           0.0791   -5.5599    2.5345 H       1  UNL1        0.0000
    142 H          -1.0716   -3.4592    1.9994 H       1  UNL1        0.0000
    143 H          -3.7906   -0.4700    1.0297 H       1  UNL1        0.0000
    144 H          -5.4622    0.0288    2.7328 H       1  UNL1        0.0000
    145 H          -6.6262   -1.8229    3.9373 H       1  UNL1        0.0000
    146 H          -4.3720   -4.6820    1.6595 H       1  UNL1        0.0000
    147 H           3.7632    5.7338    3.8150 H       1  UNL1        0.0000
    148 H          -6.0670   -4.1823    3.3797 H       1  UNL1        0.0000
    149 H          -6.7705   -2.5574   -2.6914 H       1  UNL1        0.0000
    150 H           3.4156    0.6983    1.6559 H       1  UNL1        0.0000
@<TRIPOS>BOND
     1     2    12    1
     2     2     8    1
     3     2    10    1
     4     2    14    1
     5     2     1    1
     6     3    72    1
     7     3    13    1
     8     4     7    1
     9     5    34    1
    10     5     9    1
    11     6    11    1
    12     7     1    1
    13     8     4    1
    14     9     1    1
    15    10     5    1
    16    11     1    1
    17    12     6    1
    18    13     1    1
    19    14     3    1
    20    15     4    1
    21    15    28    1
    22    16    15    1
    23    17    91    1
    24    17    16   ar
    25    18    17   ar
    26    19    18   ar
    27    19    20   ar
    28    20    21   ar
    29    21    16   ar
    30    21    95    1
    31    22    15    1
    32    22    27   ar
    33    23    22   ar
    34    24    23   ar
    35    24    25   ar
    36    25    26   ar
    37    26    99    1
    38    26    27   ar
    39    27   100    1
    40    28    29   ar
    41    28    33   ar
    42    29    30   ar
    43    30   102    1
    44    30    31   ar
    45    31   103    1
    46    32    31   ar
    47    32   104    1
    48    33    32   ar
    49    34    41    1
    50    34    47    1
    51    35    34    1
    52    36    35   ar
    53    36   106    1
    54    37    36   ar
    55    38    39   ar
    56    38    37   ar
    57    39    40   ar
    58    40   110    1
    59    40    35   ar
    60    41    42   ar
    61    42   150    1
    62    42    43   ar
    63    43   111    1
    64    44   112    1
    65    44    43   ar
    66    45    44   ar
    67    46    45   ar
    68    46    41   ar
    69    47    52   ar
    70    47    48   ar
    71    48    49   ar
    72    49    50   ar
    73    49   147    1
    74    50   116    1
    75    51    50   ar
    76    52    51   ar
    77    53     6    1
    78    53    60    1
    79    54    53    1
    80    55    54   ar
    81    55   119    1
    82    56    55   ar
    83    57    58   ar
    84    57    56   ar
    85    58    59   ar
    86    59   123    1
    87    59    54   ar
    88    60    65   ar
    89    60    61   ar
    90    61    62   ar
    91    62    63   ar
    92    62   125    1
    93    63   126    1
    94    64   127    1
    95    64    63   ar
    96    65    64   ar
    97    66    53    1
    98    66    67   ar
    99    67   129    1
   100    68    67   ar
   101    68   130    1
   102    69    68   ar
   103    70    71   ar
   104    70    69   ar
   105    71    66   ar
   106    72    79    1
   107    72    85    1
   108    73    72    1
   109    74   134    1
   110    74    73   ar
   111    75    74   ar
   112    76    75   ar
   113    76    77   ar
   114    77    78   ar
   115    78    73   ar
   116    78   137    1
   117    79    84   ar
   118    80    81   ar
   119    80    79   ar
   120    81    82   ar
   121    82   140    1
   122    82    83   ar
   123    83   141    1
   124    84    83   ar
   125    84   142    1
   126    85    86   ar
   127    85    90   ar
   128    86    87   ar
   129    87   144    1
   130    87    88   ar
   131    88   145    1
   132    89    88   ar
   133    89   148    1
   134    90    89   ar
   135    92    18    1
   136    93    19    1
   137    94    20    1
   138    96    23    1
   139    97    24    1
   140    98    25    1
   141   101    29    1
   142   105    33    1
   143   107    37    1
   144   108    38    1
   145   109    39    1
   146   113    45    1
   147   114    46    1
   148   115    48    1
   149   117    51    1
   150   118    52    1
   151   120    56    1
   152   121    57    1
   153   122    58    1
   154   124    61    1
   155   128    65    1
   156   131    69    1
   157   132    70    1
   158   133    71    1
   159   135    75    1
   160   136    76    1
   161   138    80    1
   162   139    81    1
   163   143    86    1
   164   146    90    1
   165   149    77    1
