@<TRIPOS>MOLECULE
RhRh_S-PTAD_10_sp
 182 205 0 0 0
SMALL
GASTEIGER

@<TRIPOS>ATOM
      1 Rh          0.3031    0.3668   -1.4494 Rh      1  UNL1        0.0000
      2 O          -0.9006    2.0211   -1.3485 O.3     1  UNL1        0.0000
      3 O           1.5299   -1.2755   -1.4441 O.3     1  UNL1        0.0000
      4 O          -1.2529    1.6895    0.8639 O.3     1  UNL1        0.0000
      5 O           1.2268   -1.5974    0.7701 O.3     1  UNL1        0.0000
      6 O           1.9438    1.5266   -0.9797 O.3     1  UNL1        0.0000
      7 O          -1.3688   -0.8059   -1.7649 O.3     1  UNL1        0.0000
      8 O          -1.6339   -1.1649    0.4493 O.3     1  UNL1        0.0000
      9 O           1.6064    1.2375    1.2323 O.3     1  UNL1        0.0000
     10 C          -1.9870   -1.2751   -0.7630 C.3     1  UNL1        0.0000
     11 C           2.2687    1.6653    0.2333 C.3     1  UNL1        0.0000
     12 C          -1.3958    2.3301   -0.2153 C.3     1  UNL1        0.0000
     13 C           1.7451   -1.8842   -0.3596 C.3     1  UNL1        0.0000
     14 Rh         -0.0273    0.0282    0.8915 Rh      1  UNL1        0.0000
     15 C           3.5360    2.4565    0.6540 C.3     1  UNL1        0.0000
     16 N           4.2279    1.6915    1.6941 N.am    1  UNL1        0.0000
     17 C           4.4795    2.2429    2.9722 C.2     1  UNL1        0.0000
     18 C           4.4000    0.2966    1.6951 C.2     1  UNL1        0.0000
     19 O           4.3039    3.4057    3.2717 O.2     1  UNL1        0.0000
     20 C           4.9647    1.1124    3.8120 C.ar    1  UNL1        0.0000
     21 O           4.1602   -0.4408    0.7582 O.2     1  UNL1        0.0000
     22 C           4.9001   -0.0563    3.0504 C.ar    1  UNL1        0.0000
     23 C           5.3897    1.0940    5.1325 C.ar    1  UNL1        0.0000
     24 C           5.2416   -1.2940    3.5779 C.ar    1  UNL1        0.0000
     25 C           5.7518   -0.1474    5.6732 C.ar    1  UNL1        0.0000
     26 C           5.6745   -1.3209    4.9109 C.ar    1  UNL1        0.0000
     27 C          -2.2368    3.6177   -0.2404 C.3     1  UNL1        0.0000
     28 N          -3.5933    3.4206    0.2903 N.am    1  UNL1        0.0000
     29 C          -4.0483    2.8517    1.5167 C.2     1  UNL1        0.0000
     30 C          -4.6678    3.5701   -0.6250 C.2     1  UNL1        0.0000
     31 O          -3.3970    2.6028    2.5035 O.2     1  UNL1        0.0000
     32 C          -5.5168    2.6489    1.3349 C.ar    1  UNL1        0.0000
     33 O          -4.5612    4.0011   -1.7566 O.2     1  UNL1        0.0000
     34 C          -5.8866    3.0881    0.0677 C.ar    1  UNL1        0.0000
     35 C          -6.4442    2.1029    2.2103 C.ar    1  UNL1        0.0000
     36 C          -7.1961    2.9995   -0.3858 C.ar    1  UNL1        0.0000
     37 C          -7.7690    2.0080    1.7670 C.ar    1  UNL1        0.0000
     38 C          -8.1400    2.4482    0.4881 C.ar    1  UNL1        0.0000
     39 C          -3.2533   -2.1232   -1.0230 C.3     1  UNL1        0.0000
     40 N          -3.8570   -2.5542    0.2416 N.am    1  UNL1        0.0000
     41 C          -3.8971   -3.9273    0.5609 C.2     1  UNL1        0.0000
     42 C          -4.2792   -1.7601    1.3368 C.2     1  UNL1        0.0000
     43 O          -3.5447   -4.8280   -0.1783 O.2     1  UNL1        0.0000
     44 C          -4.4402   -4.0217    1.9418 C.ar    1  UNL1        0.0000
     45 O          -4.3364   -0.5519    1.3858 O.2     1  UNL1        0.0000
     46 C          -4.6567   -2.7272    2.4086 C.ar    1  UNL1        0.0000
     47 C          -4.7182   -5.1337    2.7248 C.ar    1  UNL1        0.0000
     48 C          -5.1543   -2.4876    3.6814 C.ar    1  UNL1        0.0000
     49 C          -5.2226   -4.9046    4.0113 C.ar    1  UNL1        0.0000
     50 C          -5.4352   -3.6017    4.4829 C.ar    1  UNL1        0.0000
     51 C           2.7403   -3.0645   -0.2712 C.3     1  UNL1        0.0000
     52 N           2.0557   -4.1934    0.3638 N.am    1  UNL1        0.0000
     53 C           2.5594   -4.8148    1.5232 C.2     1  UNL1        0.0000
     54 C           0.7207   -4.5726    0.1115 C.2     1  UNL1        0.0000
     55 O           3.6330   -4.5730    2.0411 O.2     1  UNL1        0.0000
     56 C           1.5107   -5.7847    1.9501 C.ar    1  UNL1        0.0000
     57 O           0.0029   -4.0887   -0.7406 O.2     1  UNL1        0.0000
     58 C           0.4069   -5.6343    1.1083 C.ar    1  UNL1        0.0000
     59 C           1.5098   -6.7037    2.9893 C.ar    1  UNL1        0.0000
     60 C          -0.7461   -6.3897    1.2711 C.ar    1  UNL1        0.0000
     61 C           0.3564   -7.4818    3.1584 C.ar    1  UNL1        0.0000
     62 C          -0.7516   -7.3259    2.3148 C.ar    1  UNL1        0.0000
     63 H           3.4774   -2.7298    0.4666 H       1  UNL1        0.0000
     64 H          -2.8773   -3.0668   -1.4425 H       1  UNL1        0.0000
     65 H          -2.4231    3.8019   -1.3029 H       1  UNL1        0.0000
     66 H           3.1610    3.3389    1.1888 H       1  UNL1        0.0000
     67 C           0.9287    6.1905    1.4586 C.3     1  UNL1        0.0000
     68 H           1.6022    5.3141    1.5818 H       1  UNL1        0.0000
     69 H           1.4821    7.0862    1.8171 H       1  UNL1        0.0000
     70 C          -0.3537    5.9927    2.2940 C.3     1  UNL1        0.0000
     71 H          -0.0812    5.8751    3.3655 H       1  UNL1        0.0000
     72 C           0.5530    6.3636   -0.0274 C.3     1  UNL1        0.0000
     73 H           1.4762    6.5108   -0.6287 H       1  UNL1        0.0000
     74 C          -0.1845    5.1004   -0.5162 C.3     1  UNL1        0.0000
     75 H           0.5020    4.2308   -0.4192 H       1  UNL1        0.0000
     76 H          -0.4249    5.2099   -1.5972 H       1  UNL1        0.0000
     77 C          -1.1005    4.7287    1.8118 C.3     1  UNL1        0.0000
     78 H          -2.0063    4.6065    2.4375 H       1  UNL1        0.0000
     79 H          -0.4491    3.8433    1.9723 H       1  UNL1        0.0000
     80 C          -1.4904    4.8677    0.3099 C.3     1  UNL1        0.0000
     81 C          -2.3912    6.1302    0.1536 C.3     1  UNL1        0.0000
     82 H          -2.6844    6.2651   -0.9114 H       1  UNL1        0.0000
     83 H          -3.3289    6.0136    0.7406 H       1  UNL1        0.0000
     84 C          -1.2704    7.2238    2.1306 C.3     1  UNL1        0.0000
     85 H          -0.7501    8.1362    2.4965 H       1  UNL1        0.0000
     86 H          -2.1896    7.0985    2.7440 H       1  UNL1        0.0000
     87 C          -0.3658    7.5917   -0.1920 C.3     1  UNL1        0.0000
     88 H           0.1657    8.5105    0.1405 H       1  UNL1        0.0000
     89 H          -0.6280    7.7298   -1.2640 H       1  UNL1        0.0000
     90 C          -1.6470    7.3921    0.6434 C.3     1  UNL1        0.0000
     91 H          -2.3064    8.2796    0.5269 H       1  UNL1        0.0000
     92 C           5.8922    5.2236   -1.8306 C.3     1  UNL1        0.0000
     93 H           6.5691    5.6277   -2.6152 H       1  UNL1        0.0000
     94 H           5.5391    6.0844   -1.2211 H       1  UNL1        0.0000
     95 C           6.6552    4.2236   -0.9393 C.3     1  UNL1        0.0000
     96 H           7.5202    4.7364   -0.4652 H       1  UNL1        0.0000
     97 C           4.6912    4.5126   -2.4857 C.3     1  UNL1        0.0000
     98 H           4.1428    5.2334   -3.1306 H       1  UNL1        0.0000
     99 C           5.1915    3.3315   -3.3450 C.3     1  UNL1        0.0000
    100 H           5.8528    3.7069   -4.1567 H       1  UNL1        0.0000
    101 H           4.3298    2.8209   -3.8290 H       1  UNL1        0.0000
    102 C           7.1642    3.0490   -1.8011 C.3     1  UNL1        0.0000
    103 H           7.7360    2.3335   -1.1700 H       1  UNL1        0.0000
    104 H           7.8569    3.4251   -2.5857 H       1  UNL1        0.0000
    105 C           5.9642    2.3335   -2.4562 C.3     1  UNL1        0.0000
    106 H           6.3329    1.4907   -3.0808 H       1  UNL1        0.0000
    107 C           5.0291    1.7856   -1.3560 C.3     1  UNL1        0.0000
    108 H           4.2062    1.2209   -1.8390 H       1  UNL1        0.0000
    109 H           5.6021    1.0663   -0.7337 H       1  UNL1        0.0000
    110 C           5.7108    3.6854    0.1577 C.3     1  UNL1        0.0000
    111 H           5.3676    4.5305    0.7954 H       1  UNL1        0.0000
    112 H           6.2875    2.9937    0.8103 H       1  UNL1        0.0000
    113 C           3.7459    3.9835   -1.3874 C.3     1  UNL1        0.0000
    114 H           3.3759    4.8367   -0.7769 H       1  UNL1        0.0000
    115 H           2.8610    3.5369   -1.8821 H       1  UNL1        0.0000
    116 C           4.4849    2.9528   -0.4756 C.3     1  UNL1        0.0000
    117 C           4.1983   -3.1056   -4.4420 C.3     1  UNL1        0.0000
    118 H           4.7647   -3.3730   -5.3611 H       1  UNL1        0.0000
    119 H           3.5202   -2.2637   -4.7037 H       1  UNL1        0.0000
    120 C           5.1763   -2.6699   -3.3300 C.3     1  UNL1        0.0000
    121 H           5.7748   -1.8015   -3.6825 H       1  UNL1        0.0000
    122 C           3.3729   -4.3183   -3.9609 C.3     1  UNL1        0.0000
    123 H           2.6789   -4.6365   -4.7691 H       1  UNL1        0.0000
    124 C           4.3229   -5.4837   -3.6143 C.3     1  UNL1        0.0000
    125 H           4.8962   -5.7884   -4.5174 H       1  UNL1        0.0000
    126 H           3.7357   -6.3676   -3.2810 H       1  UNL1        0.0000
    127 C           6.1222   -3.8371   -2.9837 C.3     1  UNL1        0.0000
    128 H           6.8390   -3.5250   -2.1925 H       1  UNL1        0.0000
    129 H           6.7188   -4.1213   -3.8784 H       1  UNL1        0.0000
    130 C           5.2923   -5.0423   -2.4981 C.3     1  UNL1        0.0000
    131 H           5.9743   -5.8834   -2.2465 H       1  UNL1        0.0000
    132 C           4.4841   -4.6418   -1.2445 C.3     1  UNL1        0.0000
    133 H           3.9192   -5.5319   -0.8906 H       1  UNL1        0.0000
    134 H           5.1860   -4.3522   -0.4309 H       1  UNL1        0.0000
    135 C           4.3778   -2.2667   -2.0734 C.3     1  UNL1        0.0000
    136 H           3.7553   -1.3864   -2.3289 H       1  UNL1        0.0000
    137 H           5.0865   -1.9415   -1.2802 H       1  UNL1        0.0000
    138 C           2.5577   -3.9279   -2.7081 C.3     1  UNL1        0.0000
    139 H           1.8387   -3.1317   -2.9875 H       1  UNL1        0.0000
    140 H           1.9641   -4.8086   -2.3824 H       1  UNL1        0.0000
    141 C           3.5104   -3.4631   -1.5645 C.3     1  UNL1        0.0000
    142 C          -5.6573   -2.2472   -1.9186 C.3     1  UNL1        0.0000
    143 H          -6.0871   -2.1099   -0.9023 H       1  UNL1        0.0000
    144 H          -5.5283   -3.3409   -2.0781 H       1  UNL1        0.0000
    145 C          -4.2797   -1.5188   -2.0400 C.3     1  UNL1        0.0000
    146 C          -6.6671   -1.6921   -2.9460 C.3     1  UNL1        0.0000
    147 H          -7.6381   -2.2220   -2.8346 H       1  UNL1        0.0000
    148 C          -6.8748   -0.1831   -2.6985 C.3     1  UNL1        0.0000
    149 H          -7.2828   -0.0161   -1.6770 H       1  UNL1        0.0000
    150 H          -7.6164    0.2225   -3.4213 H       1  UNL1        0.0000
    151 C          -4.5190    0.0096   -1.8210 C.3     1  UNL1        0.0000
    152 H          -3.5716    0.5819   -1.9139 H       1  UNL1        0.0000
    153 H          -4.9237    0.2045   -0.8105 H       1  UNL1        0.0000
    154 C          -5.5287    0.5536   -2.8557 C.3     1  UNL1        0.0000
    155 H          -5.6844    1.6402   -2.6888 H       1  UNL1        0.0000
    156 C          -4.9810    0.3329   -4.2803 C.3     1  UNL1        0.0000
    157 H          -5.6918    0.7474   -5.0287 H       1  UNL1        0.0000
    158 H          -4.0164    0.8727   -4.4045 H       1  UNL1        0.0000
    159 C          -3.7664   -1.7317   -3.5014 C.3     1  UNL1        0.0000
    160 H          -3.6050   -2.8147   -3.6995 H       1  UNL1        0.0000
    161 H          -2.7944   -1.2247   -3.6656 H       1  UNL1        0.0000
    162 C          -6.1241   -1.9121   -4.3717 C.3     1  UNL1        0.0000
    163 H          -5.9884   -2.9992   -4.5640 H       1  UNL1        0.0000
    164 H          -6.8539   -1.5313   -5.1197 H       1  UNL1        0.0000
    165 C          -4.7782   -1.1764   -4.5261 C.3     1  UNL1        0.0000
    166 H          -4.3877   -1.3339   -5.5552 H       1  UNL1        0.0000
    167 H           2.3710   -6.8106    3.6415 H       1  UNL1        0.0000
    168 H           0.3182   -8.2162    3.9581 H       1  UNL1        0.0000
    169 H          -1.6314   -7.9430    2.4751 H       1  UNL1        0.0000
    170 H          -1.6058   -6.2462    0.6229 H       1  UNL1        0.0000
    171 H          -4.5505   -6.1382    2.3489 H       1  UNL1        0.0000
    172 H          -5.4529   -5.7482    4.6558 H       1  UNL1        0.0000
    173 H          -5.8241   -3.4563    5.4868 H       1  UNL1        0.0000
    174 H          -5.3127   -1.4736    4.0349 H       1  UNL1        0.0000
    175 H          -6.1406    1.7555    3.1923 H       1  UNL1        0.0000
    176 H          -8.5243    1.5810    2.4210 H       1  UNL1        0.0000
    177 H          -9.1752    2.3556    0.1719 H       1  UNL1        0.0000
    178 H          -7.4659    3.3373   -1.3815 H       1  UNL1        0.0000
    179 H           5.1553   -2.2023    2.9884 H       1  UNL1        0.0000
    180 H           5.9499   -2.2689    5.3636 H       1  UNL1        0.0000
    181 H           6.0902   -0.2039    6.7039 H       1  UNL1        0.0000
    182 H           5.4313    2.0064    5.7191 H       1  UNL1        0.0000
@<TRIPOS>BOND
     1     1     3    1
     2     1     2    1
     3     1     6    1
     4     1    14    1
     5     2    12    1
     6     3    13    1
     7     4    14    1
     8     5    14    1
     9     6    11    1
    10     7     1    1
    11     7    10    1
    12     8    14    1
    13    10    39    1
    14    10     8    1
    15    11    15    1
    16    11     9    1
    17    12    27    1
    18    12     4    1
    19    13    51    1
    20    13     5    1
    21    14     9    1
    22    15    66    1
    23    15    16    1
    24    16    18   am
    25    16    17   am
    26    17    19    2
    27    17    20    1
    28    18    22    1
    29    20    23   ar
    30    21    18    2
    31    22    24   ar
    32    22    20   ar
    33    23    25   ar
    34    23   182    1
    35    24    26   ar
    36    25   181    1
    37    26   180    1
    38    26    25   ar
    39    27    65    1
    40    27    28    1
    41    28    29   am
    42    29    31    2
    43    30    34    1
    44    30    28   am
    45    32    29    1
    46    32    35   ar
    47    33    30    2
    48    34    32   ar
    49    35   175    1
    50    36    34   ar
    51    36    38   ar
    52    37    35   ar
    53    37   176    1
    54    38    37   ar
    55    39    64    1
    56    39    40    1
    57    40    41   am
    58    40    42   am
    59    41    44    1
    60    42    45    2
    61    42    46    1
    62    43    41    2
    63    44    46   ar
    64    44    47   ar
    65    46    48   ar
    66    47    49   ar
    67    48   174    1
    68    48    50   ar
    69    49    50   ar
    70    49   172    1
    71    50   173    1
    72    51    52    1
    73    51    63    1
    74    52    53   am
    75    53    56    1
    76    53    55    2
    77    54    52   am
    78    54    58    1
    79    56    59   ar
    80    57    54    2
    81    58    60   ar
    82    58    56   ar
    83    59    61   ar
    84    59   167    1
    85    60    62   ar
    86    61   168    1
    87    62   169    1
    88    62    61   ar
    89    67    68    1
    90    67    69    1
    91    67    70    1
    92    70    71    1
    93    72    73    1
    94    72    67    1
    95    74    75    1
    96    74    72    1
    97    74    80    1
    98    76    74    1
    99    77    79    1
   100    77    70    1
   101    77    78    1
   102    80    27    1
   103    80    77    1
   104    81    80    1
   105    81    90    1
   106    81    83    1
   107    82    81    1
   108    84    70    1
   109    84    85    1
   110    84    86    1
   111    87    72    1
   112    87    88    1
   113    87    90    1
   114    89    87    1
   115    90    91    1
   116    90    84    1
   117    92    94    1
   118    92    95    1
   119    93    92    1
   120    95    96    1
   121    95   110    1
   122    97    98    1
   123    97    92    1
   124    97   113    1
   125    99    97    1
   126    99   105    1
   127   100    99    1
   128   101    99    1
   129   102   103    1
   130   102    95    1
   131   104   102    1
   132   105   106    1
   133   105   102    1
   134   105   107    1
   135   107   109    1
   136   107   116    1
   137   108   107    1
   138   110   111    1
   139   110   112    1
   140   113   114    1
   141   113   116    1
   142   115   113    1
   143   116   110    1
   144   116    15    1
   145   117   122    1
   146   117   120    1
   147   118   117    1
   148   119   117    1
   149   120   121    1
   150   120   127    1
   151   120   135    1
   152   122   123    1
   153   122   124    1
   154   122   138    1
   155   124   126    1
   156   124   130    1
   157   125   124    1
   158   127   130    1
   159   127   128    1
   160   129   127    1
   161   130   131    1
   162   130   132    1
   163   132   133    1
   164   132   134    1
   165   135   141    1
   166   135   137    1
   167   136   135    1
   168   138   140    1
   169   138   141    1
   170   139   138    1
   171   141   132    1
   172   141    51    1
   173   142   143    1
   174   144   142    1
   175   145   142    1
   176   145   151    1
   177   145    39    1
   178   146   147    1
   179   146   148    1
   180   146   142    1
   181   148   149    1
   182   150   148    1
   183   151   153    1
   184   152   151    1
   185   154   148    1
   186   154   155    1
   187   154   151    1
   188   156   154    1
   189   157   156    1
   190   158   156    1
   191   159   145    1
   192   160   159    1
   193   161   159    1
   194   162   146    1
   195   163   162    1
   196   164   162    1
   197   165   166    1
   198   165   162    1
   199   165   156    1
   200   165   159    1
   201   170    60    1
   202   171    47    1
   203   177    38    1
   204   178    36    1
   205   179    24    1
