@<TRIPOS>MOLECULE
RhRh_ACH4_22_sp
 138 153 0 0 0
SMALL
GASTEIGER

@<TRIPOS>ATOM
      1 Rh         -0.2816   -0.4923    0.9926 Rh      1  UNL1        0.0000
      2 Rh         -0.1375   -0.8535   -1.3615 Rh      1  UNL1        0.0000
      3 C           1.7812    1.0255   -0.3524 C.3     1  UNL1        0.0000
      4 C           1.4710   -2.6560    0.2359 C.3     1  UNL1        0.0000
      5 C          -2.2054   -2.3744   -0.0112 C.3     1  UNL1        0.0000
      6 C          -1.8754    1.3123   -0.5992 C.3     1  UNL1        0.0000
      7 O          -1.4858    1.1309    0.5969 O.3     1  UNL1        0.0000
      8 O          -1.5298    0.6230   -1.6062 O.3     1  UNL1        0.0000
      9 O          -1.9312   -1.7167    1.0401 O.3     1  UNL1        0.0000
     10 O          -1.6175   -2.2787   -1.1294 O.3     1  UNL1        0.0000
     11 O           1.3137   -2.2833   -0.9696 O.3     1  UNL1        0.0000
     12 O           0.8874   -2.1704    1.2502 O.3     1  UNL1        0.0000
     13 O           1.3226    0.5796   -1.4484 O.3     1  UNL1        0.0000
     14 O           1.4199    0.6582    0.8078 O.3     1  UNL1        0.0000
     15 N          -2.0347    3.7357   -0.8750 N.am    1  UNL1        0.0000
     16 N          -4.6038   -2.8344    0.3114 N.am    1  UNL1        0.0000
     17 N           3.7982   -3.3287    0.0903 N.am    1  UNL1        0.0000
     18 N           2.8083    2.8958    0.7669 N.am    1  UNL1        0.0000
     19 C          -2.8543    2.4863   -0.8470 C.3     1  UNL1        0.0000
     20 C          -3.9128    2.5025    0.2789 C.3     1  UNL1        0.0000
     21 C          -5.0005    3.5630    0.0655 C.3     1  UNL1        0.0000
     22 C          -5.6627    3.4592   -1.3135 C.3     1  UNL1        0.0000
     23 C          -4.6124    3.4233   -2.4279 C.3     1  UNL1        0.0000
     24 C          -3.5926    2.3055   -2.1922 C.3     1  UNL1        0.0000
     25 C          -1.1432    4.0285   -1.9432 C.2     1  UNL1        0.0000
     26 C          -0.4605    5.2999   -1.5906 C.ar    1  UNL1        0.0000
     27 C           0.4850    6.0274   -2.2959 C.ar    1  UNL1        0.0000
     28 C           1.0056    7.1701   -1.6764 C.ar    1  UNL1        0.0000
     29 C           0.5833    7.5527   -0.3968 C.ar    1  UNL1        0.0000
     30 C          -0.3700    6.8040    0.3046 C.ar    1  UNL1        0.0000
     31 C          -0.8753    5.6751   -0.3201 C.ar    1  UNL1        0.0000
     32 C          -1.8312    4.6495    0.1852 C.2     1  UNL1        0.0000
     33 C          -3.2806   -3.4861    0.1472 C.3     1  UNL1        0.0000
     34 C          -2.9316   -4.2770    1.4334 C.3     1  UNL1        0.0000
     35 C          -1.6287   -5.0647    1.2644 C.3     1  UNL1        0.0000
     36 C          -1.7286   -6.0343    0.0810 C.3     1  UNL1        0.0000
     37 C          -2.0551   -5.2849   -1.2162 C.3     1  UNL1        0.0000
     38 C          -3.3192   -4.4217   -1.0779 C.3     1  UNL1        0.0000
     39 C          -4.9011   -1.5167   -0.0819 C.2     1  UNL1        0.0000
     40 C          -6.3376   -1.2945    0.2316 C.ar    1  UNL1        0.0000
     41 C          -7.1199   -0.1581    0.0978 C.ar    1  UNL1        0.0000
     42 C          -8.4661   -0.2598    0.4704 C.ar    1  UNL1        0.0000
     43 C          -8.9959   -1.4643    0.9492 C.ar    1  UNL1        0.0000
     44 C          -8.1960   -2.6073    1.0743 C.ar    1  UNL1        0.0000
     45 C          -6.8640   -2.4917    0.7101 C.ar    1  UNL1        0.0000
     46 C          -5.7766   -3.5099    0.7248 C.2     1  UNL1        0.0000
     47 C           2.4460   -3.8332    0.4583 C.3     1  UNL1        0.0000
     48 C           2.4371   -4.3017    1.9292 C.3     1  UNL1        0.0000
     49 C           3.2753   -5.5668    2.1309 C.3     1  UNL1        0.0000
     50 C           2.7471   -6.7176    1.2691 C.3     1  UNL1        0.0000
     51 C           2.7206   -6.3152   -0.2084 C.3     1  UNL1        0.0000
     52 C           1.9676   -5.0000   -0.4393 C.3     1  UNL1        0.0000
     53 C           4.5514   -3.6013   -1.0790 C.2     1  UNL1        0.0000
     54 C           5.7898   -2.7774   -0.9720 C.ar    1  UNL1        0.0000
     55 C           6.8688   -2.6837   -1.8373 C.ar    1  UNL1        0.0000
     56 C           7.8882   -1.7872   -1.4934 C.ar    1  UNL1        0.0000
     57 C           7.8135   -1.0168   -0.3247 C.ar    1  UNL1        0.0000
     58 C           6.7153   -1.1162    0.5375 C.ar    1  UNL1        0.0000
     59 C           5.7162   -2.0109    0.1853 C.ar    1  UNL1        0.0000
     60 C           4.4157   -2.2952    0.8410 C.2     1  UNL1        0.0000
     61 C           2.9397    2.0436   -0.4345 C.3     1  UNL1        0.0000
     62 C           4.2599    1.2342   -0.4397 C.3     1  UNL1        0.0000
     63 C           4.4587    0.4851   -1.7639 C.3     1  UNL1        0.0000
     64 C           4.4666    1.4534   -2.9514 C.3     1  UNL1        0.0000
     65 C           3.1713    2.2666   -3.0169 C.3     1  UNL1        0.0000
     66 C           2.8632    2.9589   -1.6836 C.3     1  UNL1        0.0000
     67 C           3.7437    3.2085    1.7761 C.2     1  UNL1        0.0000
     68 C           2.9871    4.0135    2.7856 C.ar    1  UNL1        0.0000
     69 C           3.4179    4.5753    3.9766 C.ar    1  UNL1        0.0000
     70 C           2.4680    5.2687    4.7385 C.ar    1  UNL1        0.0000
     71 C           1.1382    5.3827    4.3132 C.ar    1  UNL1        0.0000
     72 C           0.7100    4.8139    3.1065 C.ar    1  UNL1        0.0000
     73 C           1.6655    4.1384    2.3611 C.ar    1  UNL1        0.0000
     74 C           1.5461    3.4358    1.0651 C.2     1  UNL1        0.0000
     75 H          -4.3587    1.5041    0.2554 H       1  UNL1        0.0000
     76 H          -3.4356    2.6268    1.2468 H       1  UNL1        0.0000
     77 H          -5.7507    3.4584    0.8584 H       1  UNL1        0.0000
     78 H          -4.5670    4.5601    0.1904 H       1  UNL1        0.0000
     79 H          -6.3611    4.2910   -1.4628 H       1  UNL1        0.0000
     80 H          -6.2599    2.5381   -1.3705 H       1  UNL1        0.0000
     81 H          -5.0913    3.2759   -3.4021 H       1  UNL1        0.0000
     82 H          -4.0967    4.3911   -2.4789 H       1  UNL1        0.0000
     83 H          -2.8780    2.2396   -3.0076 H       1  UNL1        0.0000
     84 H          -4.1048    1.3406   -2.1282 H       1  UNL1        0.0000
     85 H           1.7501    7.7686   -2.1918 H       1  UNL1        0.0000
     86 H           1.0072    8.4421    0.0589 H       1  UNL1        0.0000
     87 H          -0.6954    7.0841    1.3003 H       1  UNL1        0.0000
     88 H          -2.8634   -3.5728    2.2648 H       1  UNL1        0.0000
     89 H          -3.7476   -4.9714    1.6348 H       1  UNL1        0.0000
     90 H          -0.7928   -4.3699    1.1194 H       1  UNL1        0.0000
     91 H          -1.4183   -5.6089    2.1916 H       1  UNL1        0.0000
     92 H          -2.5165   -6.7702    0.2905 H       1  UNL1        0.0000
     93 H          -0.7960   -6.5985   -0.0346 H       1  UNL1        0.0000
     94 H          -2.2001   -5.9937   -2.0389 H       1  UNL1        0.0000
     95 H          -1.2110   -4.6462   -1.4929 H       1  UNL1        0.0000
     96 H          -4.1899   -5.0724   -0.9475 H       1  UNL1        0.0000
     97 H          -3.4755   -3.8228   -1.9788 H       1  UNL1        0.0000
     98 H          -6.7013    0.7689   -0.2760 H       1  UNL1        0.0000
     99 H          -9.1112    0.6087    0.3846 H       1  UNL1        0.0000
    100 H         -10.0440   -1.5108    1.2269 H       1  UNL1        0.0000
    101 H           1.3941   -4.5136    2.1852 H       1  UNL1        0.0000
    102 H           2.7601   -3.4920    2.5798 H       1  UNL1        0.0000
    103 H           3.2634   -5.8402    3.1916 H       1  UNL1        0.0000
    104 H           4.3233   -5.3631    1.8731 H       1  UNL1        0.0000
    105 H           3.3574   -7.6173    1.4060 H       1  UNL1        0.0000
    106 H           1.7303   -6.9716    1.6003 H       1  UNL1        0.0000
    107 H           2.2436   -7.0965   -0.8111 H       1  UNL1        0.0000
    108 H           3.7423   -6.2182   -0.5863 H       1  UNL1        0.0000
    109 H           2.0012   -4.7065   -1.4856 H       1  UNL1        0.0000
    110 H           0.9149   -5.1446   -0.1754 H       1  UNL1        0.0000
    111 H           8.7498   -1.6806   -2.1448 H       1  UNL1        0.0000
    112 H           8.6171   -0.3260   -0.0910 H       1  UNL1        0.0000
    113 H           6.6307   -0.5086    1.4318 H       1  UNL1        0.0000
    114 H           4.2669    0.5543    0.4152 H       1  UNL1        0.0000
    115 H           5.0850    1.9332   -0.2938 H       1  UNL1        0.0000
    116 H           3.6745   -0.2680   -1.9013 H       1  UNL1        0.0000
    117 H           5.4096   -0.0502   -1.7172 H       1  UNL1        0.0000
    118 H           5.3238    2.1339   -2.8440 H       1  UNL1        0.0000
    119 H           4.6165    0.9036   -3.8874 H       1  UNL1        0.0000
    120 H           3.2418    3.0346   -3.7962 H       1  UNL1        0.0000
    121 H           2.3381    1.6143   -3.2844 H       1  UNL1        0.0000
    122 H           3.6030    3.7499   -1.5070 H       1  UNL1        0.0000
    123 H           1.8814    3.4317   -1.7207 H       1  UNL1        0.0000
    124 H           4.4478    4.4718    4.3006 H       1  UNL1        0.0000
    125 H           2.7647    5.7204    5.6799 H       1  UNL1        0.0000
    126 H           0.4264    5.9175    4.9341 H       1  UNL1        0.0000
    127 O          -2.3328    4.6349    1.2933 O.2     1  UNL1        0.0000
    128 O          -0.9605    3.3630   -2.9410 O.2     1  UNL1        0.0000
    129 O          -4.1195   -0.7388   -0.5938 O.2     1  UNL1        0.0000
    130 O          -5.8744   -4.6872    1.0075 O.2     1  UNL1        0.0000
    131 O           4.2660   -4.3511   -1.9891 O.2     1  UNL1        0.0000
    132 O           3.9397   -1.7305    1.8051 O.2     1  UNL1        0.0000
    133 O           0.5678    3.3154    0.3529 O.2     1  UNL1        0.0000
    134 O           4.9194    2.9082    1.8171 O.2     1  UNL1        0.0000
    135 H           0.8076    5.7103   -3.2817 H       1  UNL1        0.0000
    136 H          -8.5929   -3.5475    1.4413 H       1  UNL1        0.0000
    137 H           6.9081   -3.2777   -2.7438 H       1  UNL1        0.0000
    138 H          -0.3199    4.8791    2.7697 H       1  UNL1        0.0000
@<TRIPOS>BOND
     1     1     9    1
     2     1    12    1
     3     2    10    1
     4     2    11    1
     5     2     1    1
     6     3    14    1
     7     4    47    1
     8     4    12    1
     9     5    33    1
    10     5     9    1
    11     6     7    1
    12     7     1    1
    13     8     2    1
    14     8     6    1
    15    10     5    1
    16    11     4    1
    17    13     2    1
    18    13     3    1
    19    14     1    1
    20    15    19    1
    21    15    32   am
    22    16    46   am
    23    17    47    1
    24    17    60   am
    25    18    74   am
    26    18    67   am
    27    19     6    1
    28    19    20    1
    29    20    76    1
    30    21    78    1
    31    21    20    1
    32    21    77    1
    33    22    21    1
    34    23    24    1
    35    23    22    1
    36    24    84    1
    37    24    19    1
    38    25    26    1
    39    25    15   am
    40    26    31   ar
    41    27    28   ar
    42    27    26   ar
    43    28    29   ar
    44    29    86    1
    45    29    30   ar
    46    30    87    1
    47    31    32    1
    48    31    30   ar
    49    32   127    2
    50    33    16    1
    51    33    34    1
    52    34    89    1
    53    34    88    1
    54    35    34    1
    55    35    91    1
    56    36    92    1
    57    36    35    1
    58    37    38    1
    59    37    36    1
    60    38    96    1
    61    38    33    1
    62    39    40    1
    63    39    16   am
    64    40    45   ar
    65    41    40   ar
    66    41    42   ar
    67    42    43   ar
    68    43    44   ar
    69    43   100    1
    70    44   136    1
    71    45    46    1
    72    45    44   ar
    73    46   130    2
    74    47    48    1
    75    48    49    1
    76    48   101    1
    77    48   102    1
    78    49   103    1
    79    50   105    1
    80    50   106    1
    81    50    49    1
    82    51    50    1
    83    52    51    1
    84    52   110    1
    85    52    47    1
    86    53    54    1
    87    53    17   am
    88    54    59   ar
    89    55    56   ar
    90    55    54   ar
    91    56    57   ar
    92    57   112    1
    93    57    58   ar
    94    58   113    1
    95    59    58   ar
    96    59    60    1
    97    60   132    2
    98    61     3    1
    99    61    18    1
   100    62    61    1
   101    62   115    1
   102    62   114    1
   103    63   117    1
   104    63    62    1
   105    64   118    1
   106    64    63    1
   107    65    64    1
   108    65    66    1
   109    66   122    1
   110    66    61    1
   111    67   134    2
   112    67    68    1
   113    68    69   ar
   114    69   124    1
   115    69    70   ar
   116    70   125    1
   117    71    70   ar
   118    71   126    1
   119    72    71   ar
   120    73    68   ar
   121    73    72   ar
   122    74    73    1
   123    75    20    1
   124    79    22    1
   125    80    22    1
   126    81    23    1
   127    82    23    1
   128    83    24    1
   129    85    28    1
   130    90    35    1
   131    93    36    1
   132    94    37    1
   133    95    37    1
   134    97    38    1
   135    98    41    1
   136    99    42    1
   137   104    49    1
   138   107    51    1
   139   108    51    1
   140   109    52    1
   141   111    56    1
   142   116    63    1
   143   119    64    1
   144   120    65    1
   145   121    65    1
   146   123    66    1
   147   128    25    2
   148   129    39    2
   149   131    53    2
   150   133    74    2
   151   135    27    1
   152   137    55    1
   153   138    72    1
