@<TRIPOS>MOLECULE
RhRh_S-PTTL4_1_sp
 134 145 0 0 0
SMALL
GASTEIGER

@<TRIPOS>ATOM
      1 Rh         -0.0001   -0.0006   -2.2532 Rh      1  UNL1        0.0000
      2 Rh          0.0000   -0.0003    0.1392 Rh      1  UNL1        0.0000
      3 C          -0.5891    2.5509   -1.0491 C.3     1  UNL1        0.0000
      4 C          -2.5514   -0.5895   -1.0486 C.3     1  UNL1        0.0000
      5 C           0.5891   -2.5517   -1.0486 C.3     1  UNL1        0.0000
      6 C           2.5513    0.5887   -1.0490 C.3     1  UNL1        0.0000
      7 O          -1.9997   -0.4968   -2.1829 O.3     1  UNL1        0.0000
      8 O          -1.9670   -0.5191    0.0801 O.3     1  UNL1        0.0000
      9 O          -0.4963    1.9990   -2.1833 O.3     1  UNL1        0.0000
     10 O          -0.5188    1.9667    0.0797 O.3     1  UNL1        0.0000
     11 O           1.9995    0.4957   -2.1832 O.3     1  UNL1        0.0000
     12 O           1.9670    0.5185    0.0797 O.3     1  UNL1        0.0000
     13 O           0.4962   -2.0001   -2.1829 O.3     1  UNL1        0.0000
     14 O           0.5189   -1.9672    0.0801 O.3     1  UNL1        0.0000
     15 N          -4.5082    0.1423    0.1114 N.am    1  UNL1        0.0000
     16 N           0.1426    4.5078    0.1108 N.am    1  UNL1        0.0000
     17 N           4.5081   -0.1424    0.1113 N.am    1  UNL1        0.0000
     18 N          -0.1422   -4.5084    0.1119 N.am    1  UNL1        0.0000
     19 C          -4.0410    1.4717    0.1954 C.2     1  UNL1        0.0000
     20 C          -4.3046    1.9175    1.5871 C.ar    1  UNL1        0.0000
     21 C          -4.0195    3.1271    2.2027 C.ar    1  UNL1        0.0000
     22 C          -4.3471    3.2417    3.5600 C.ar    1  UNL1        0.0000
     23 C          -4.9343    2.1793    4.2584 C.ar    1  UNL1        0.0000
     24 C          -5.2015    0.9570    3.6278 C.ar    1  UNL1        0.0000
     25 C          -4.8729    0.8496    2.2858 C.ar    1  UNL1        0.0000
     26 C          -4.9460   -0.3198    1.3666 C.2     1  UNL1        0.0000
     27 C           1.4719    4.0405    0.1953 C.2     1  UNL1        0.0000
     28 C           1.9172    4.3044    1.5872 C.ar    1  UNL1        0.0000
     29 C           3.1266    4.0195    2.2033 C.ar    1  UNL1        0.0000
     30 C           3.2407    4.3473    3.5605 C.ar    1  UNL1        0.0000
     31 C           2.1781    4.9347    4.2584 C.ar    1  UNL1        0.0000
     32 C           0.9561    5.2018    3.6274 C.ar    1  UNL1        0.0000
     33 C           0.8491    4.8728    2.2854 C.ar    1  UNL1        0.0000
     34 C          -0.3200    4.9458    1.3658 C.2     1  UNL1        0.0000
     35 C           4.0409   -1.4717    0.1961 C.2     1  UNL1        0.0000
     36 C           4.3041   -1.9164    1.5883 C.ar    1  UNL1        0.0000
     37 C           4.0189   -3.1257    2.2047 C.ar    1  UNL1        0.0000
     38 C           4.3461   -3.2393    3.5621 C.ar    1  UNL1        0.0000
     39 C           4.9331   -2.1764    4.2599 C.ar    1  UNL1        0.0000
     40 C           5.2005   -0.9546    3.6285 C.ar    1  UNL1        0.0000
     41 C           4.8723   -0.8481    2.2863 C.ar    1  UNL1        0.0000
     42 C           4.9456    0.3206    1.3663 C.2     1  UNL1        0.0000
     43 C          -1.4716   -4.0410    0.1963 C.2     1  UNL1        0.0000
     44 C          -1.9166   -4.3036    1.5885 C.ar    1  UNL1        0.0000
     45 C          -3.1260   -4.0182    2.2045 C.ar    1  UNL1        0.0000
     46 C          -3.2398   -4.3446    3.5621 C.ar    1  UNL1        0.0000
     47 C          -2.1770   -4.9312    4.2603 C.ar    1  UNL1        0.0000
     48 C          -0.9551   -5.1988    3.6294 C.ar    1  UNL1        0.0000
     49 C          -0.8484   -4.8712    2.2870 C.ar    1  UNL1        0.0000
     50 C           0.3205   -4.9451    1.3673 C.2     1  UNL1        0.0000
     51 C          -4.0642   -0.8002   -0.9227 C.3     1  UNL1        0.0000
     52 C          -4.9300   -0.8272   -2.2065 C.3     1  UNL1        0.0000
     53 C          -4.8413    0.4694   -3.0262 C.3     1  UNL1        0.0000
     54 C          -4.4788   -2.0278   -3.0612 C.3     1  UNL1        0.0000
     55 C          -6.3882   -1.0532   -1.7656 C.3     1  UNL1        0.0000
     56 C          -0.7996    4.0638   -0.9236 C.3     1  UNL1        0.0000
     57 C          -0.8259    4.9294   -2.2076 C.3     1  UNL1        0.0000
     58 C           0.4707    4.8399   -3.0271 C.3     1  UNL1        0.0000
     59 C          -1.0514    6.3877   -1.7670 C.3     1  UNL1        0.0000
     60 C          -2.0266    4.4785   -3.0624 C.3     1  UNL1        0.0000
     61 C           4.0641    0.7995   -0.9234 C.3     1  UNL1        0.0000
     62 C           4.9298    0.8257   -2.2073 C.3     1  UNL1        0.0000
     63 C           4.8409   -0.4712   -3.0264 C.3     1  UNL1        0.0000
     64 C           4.4788    2.0260   -3.0625 C.3     1  UNL1        0.0000
     65 C           6.3881    1.0517   -1.7665 C.3     1  UNL1        0.0000
     66 C           0.7999   -4.0645   -0.9227 C.3     1  UNL1        0.0000
     67 C           0.8262   -4.9304   -2.2064 C.3     1  UNL1        0.0000
     68 C           2.0267   -4.4798   -3.0615 C.3     1  UNL1        0.0000
     69 C           1.0517   -6.3887   -1.7654 C.3     1  UNL1        0.0000
     70 C          -0.4705   -4.8413   -3.0258 C.3     1  UNL1        0.0000
     71 H          -5.1741    2.3022    5.3098 H       1  UNL1        0.0000
     72 H          -5.6365    0.1204    4.1637 H       1  UNL1        0.0000
     73 H           2.3008    5.1747    5.3098 H       1  UNL1        0.0000
     74 H           0.1193    5.6368    4.1629 H       1  UNL1        0.0000
     75 H           4.1309   -4.1663    4.0835 H       1  UNL1        0.0000
     76 H           5.1726   -2.2986    5.3115 H       1  UNL1        0.0000
     77 H           5.6353   -0.1175    4.1639 H       1  UNL1        0.0000
     78 H          -2.2994   -5.1701    5.3121 H       1  UNL1        0.0000
     79 H          -0.1181   -5.6333    4.1652 H       1  UNL1        0.0000
     80 H          -4.1599   -1.7844   -0.4526 H       1  UNL1        0.0000
     81 H          -5.4650    0.3740   -3.9216 H       1  UNL1        0.0000
     82 H          -3.8159    0.6741   -3.3362 H       1  UNL1        0.0000
     83 H          -5.1975    1.3297   -2.4556 H       1  UNL1        0.0000
     84 H          -4.5084   -2.9580   -2.4842 H       1  UNL1        0.0000
     85 H          -3.4619   -1.8937   -3.4314 H       1  UNL1        0.0000
     86 H          -5.1490   -2.1394   -3.9194 H       1  UNL1        0.0000
     87 H          -6.4856   -1.9538   -1.1507 H       1  UNL1        0.0000
     88 H          -7.0285   -1.1684   -2.6455 H       1  UNL1        0.0000
     89 H          -6.7640   -0.2063   -1.1843 H       1  UNL1        0.0000
     90 H          -1.7840    4.1597   -0.4539 H       1  UNL1        0.0000
     91 H           1.3311    5.1959   -2.4564 H       1  UNL1        0.0000
     92 H           0.3756    5.4634   -3.9226 H       1  UNL1        0.0000
     93 H           0.6750    3.8144   -3.3368 H       1  UNL1        0.0000
     94 H          -0.2045    6.7633   -1.1856 H       1  UNL1        0.0000
     95 H          -1.9521    6.4856   -1.1523 H       1  UNL1        0.0000
     96 H          -1.1662    7.0279   -2.6470 H       1  UNL1        0.0000
     97 H          -2.9569    4.5086   -2.4856 H       1  UNL1        0.0000
     98 H          -1.8929    3.4615   -3.4324 H       1  UNL1        0.0000
     99 H          -2.1378    5.1487   -3.9207 H       1  UNL1        0.0000
    100 H           4.1598    1.7840   -0.4539 H       1  UNL1        0.0000
    101 H           3.8154   -0.6758   -3.3362 H       1  UNL1        0.0000
    102 H           5.1970   -1.3313   -2.4554 H       1  UNL1        0.0000
    103 H           5.4645   -0.3762   -3.9219 H       1  UNL1        0.0000
    104 H           3.4618    1.8920   -3.4326 H       1  UNL1        0.0000
    105 H           5.1490    2.1372   -3.9207 H       1  UNL1        0.0000
    106 H           4.5085    2.9565   -2.4859 H       1  UNL1        0.0000
    107 H           7.0283    1.1663   -2.6464 H       1  UNL1        0.0000
    108 H           6.7637    0.2050   -1.1847 H       1  UNL1        0.0000
    109 H           6.4856    1.9526   -1.1521 H       1  UNL1        0.0000
    110 H           1.7842   -4.1602   -0.4530 H       1  UNL1        0.0000
    111 H           2.9571   -4.5096   -2.4847 H       1  UNL1        0.0000
    112 H           1.8929   -3.4629   -3.4318 H       1  UNL1        0.0000
    113 H           2.1379   -5.1502   -3.9196 H       1  UNL1        0.0000
    114 H           0.2049   -6.7641   -1.1838 H       1  UNL1        0.0000
    115 H           1.9525   -6.4863   -1.1507 H       1  UNL1        0.0000
    116 H           1.1666   -7.0291   -2.6452 H       1  UNL1        0.0000
    117 H          -0.6749   -3.8159   -3.3357 H       1  UNL1        0.0000
    118 H          -1.3309   -5.1972   -2.4550 H       1  UNL1        0.0000
    119 H          -0.3755   -5.4650   -3.9212 H       1  UNL1        0.0000
    120 O          -1.4648    5.2744    1.6146 O.2     1  UNL1        0.0000
    121 O           2.0853    3.5074   -0.7088 O.2     1  UNL1        0.0000
    122 O           5.2739    1.4655    1.6149 O.2     1  UNL1        0.0000
    123 O           3.5081   -2.0855   -0.7080 O.2     1  UNL1        0.0000
    124 O          -2.0852   -3.5086   -0.7082 O.2     1  UNL1        0.0000
    125 O           1.4654   -5.2733    1.6163 O.2     1  UNL1        0.0000
    126 O          -3.5082    2.0848   -0.7091 O.2     1  UNL1        0.0000
    127 O          -5.2745   -1.4645    1.6159 O.2     1  UNL1        0.0000
    128 H          -4.1321    4.1691    4.0808 H       1  UNL1        0.0000
    129 H          -3.5361    3.9379    1.6689 H       1  UNL1        0.0000
    130 H           3.5356   -3.9368    1.6712 H       1  UNL1        0.0000
    131 H           3.9375    3.5359    1.6697 H       1  UNL1        0.0000
    132 H           4.1680    4.1324    4.0816 H       1  UNL1        0.0000
    133 H          -3.9371   -3.5353    1.6706 H       1  UNL1        0.0000
    134 H          -4.1670   -4.1292    4.0831 H       1  UNL1        0.0000
@<TRIPOS>BOND
     1     1     9    1
     2     1    11    1
     3     1    13    1
     4     1     7    1
     5     1     2    1
     6     3    56    1
     7     3    10    1
     8     4    51    1
     9     4     8    1
    10     5    66    1
    11     5    14    1
    12     6    61    1
    13     6    12    1
    14     7     4    1
    15     8     2    1
    16     9     3    1
    17    10     2    1
    18    11     6    1
    19    12     2    1
    20    13     5    1
    21    14     2    1
    22    15    19   am
    23    15    26   am
    24    16    27   am
    25    16    34   am
    26    17    35   am
    27    17    42   am
    28    18    43   am
    29    18    50   am
    30    19    20    1
    31    20    21   ar
    32    20    25   ar
    33    21    22   ar
    34    22   128    1
    35    22    23   ar
    36    23    71    1
    37    24    72    1
    38    24    23   ar
    39    25    24   ar
    40    26   127    2
    41    26    25    1
    42    27    28    1
    43    28    29   ar
    44    28    33   ar
    45    29    30   ar
    46    30   132    1
    47    30    31   ar
    48    31    73    1
    49    32    74    1
    50    32    31   ar
    51    33    32   ar
    52    34   120    2
    53    34    33    1
    54    35    36    1
    55    36    37   ar
    56    36    41   ar
    57    37    38   ar
    58    38    75    1
    59    38    39   ar
    60    39    76    1
    61    40    77    1
    62    40    39   ar
    63    41    40   ar
    64    42   122    2
    65    42    41    1
    66    43    44    1
    67    44    45   ar
    68    44    49   ar
    69    45    46   ar
    70    46   134    1
    71    46    47   ar
    72    47    78    1
    73    48    79    1
    74    48    47   ar
    75    49    48   ar
    76    50   125    2
    77    50    49    1
    78    51    80    1
    79    51    15    1
    80    52    55    1
    81    52    51    1
    82    53    83    1
    83    53    52    1
    84    54    84    1
    85    54    52    1
    86    55    89    1
    87    55    87    1
    88    56    90    1
    89    56    16    1
    90    57    59    1
    91    57    56    1
    92    58    91    1
    93    58    57    1
    94    59    94    1
    95    59    95    1
    96    60    97    1
    97    60    57    1
    98    61   100    1
    99    61    17    1
   100    62    65    1
   101    62    61    1
   102    63   102    1
   103    63    62    1
   104    64   106    1
   105    64    62    1
   106    65   108    1
   107    65   109    1
   108    66   110    1
   109    66    18    1
   110    67    69    1
   111    67    66    1
   112    68   111    1
   113    68    67    1
   114    69   114    1
   115    69   115    1
   116    70   118    1
   117    70    67    1
   118    81    53    1
   119    82    53    1
   120    85    54    1
   121    86    54    1
   122    88    55    1
   123    92    58    1
   124    93    58    1
   125    96    59    1
   126    98    60    1
   127    99    60    1
   128   101    63    1
   129   103    63    1
   130   104    64    1
   131   105    64    1
   132   107    65    1
   133   112    68    1
   134   113    68    1
   135   116    69    1
   136   117    70    1
   137   119    70    1
   138   121    27    2
   139   123    35    2
   140   124    43    2
   141   126    19    2
   142   129    21    1
   143   130    37    1
   144   131    29    1
   145   133    45    1
