@<TRIPOS>MOLECULE
RhRh_MES-O2C4_1_sp
 94 101 0 0 0
SMALL
GASTEIGER

@<TRIPOS>ATOM
      1 Rh          0.0001    0.0005    1.1942 Rh      1  UNL1        0.0000
      2 Rh          0.0001   -0.0015   -1.1942 Rh      1  UNL1        0.0000
      3 C           1.8656    1.8620   -0.0014 C.3     1  UNL1        0.0000
      4 C          -1.8657   -1.8626    0.0016 C.3     1  UNL1        0.0000
      5 C           1.8644   -1.8641    0.0014 C.3     1  UNL1        0.0000
      6 C          -1.8640    1.8635   -0.0015 C.3     1  UNL1        0.0000
      7 O           1.5171   -1.3835    1.1302 O.3     1  UNL1        0.0000
      8 O           1.3836   -1.5188   -1.1281 O.3     1  UNL1        0.0000
      9 O           1.3848    1.5169    1.1281 O.3     1  UNL1        0.0000
     10 O           1.5181    1.3814   -1.1302 O.3     1  UNL1        0.0000
     11 O          -1.3835    1.5161   -1.1304 O.3     1  UNL1        0.0000
     12 O          -1.5168    1.3846    1.1282 O.3     1  UNL1        0.0000
     13 O          -1.5181   -1.3843   -1.1281 O.3     1  UNL1        0.0000
     14 O          -1.3847   -1.5158    1.1304 O.3     1  UNL1        0.0000
     15 C           2.9187   -2.9150    0.0017 C.ar    1  UNL1        0.0000
     16 C           4.0634   -2.7442   -0.8011 C.ar    1  UNL1        0.0000
     17 C           4.2580   -1.5252   -1.6722 C.3     1  UNL1        0.0000
     18 C           5.0458   -3.7355   -0.7697 C.ar    1  UNL1        0.0000
     19 C           4.9053   -4.8894    0.0057 C.ar    1  UNL1        0.0000
     20 C           5.9598   -5.9672   -0.0174 C.3     1  UNL1        0.0000
     21 C           3.7531   -5.0331    0.7829 C.ar    1  UNL1        0.0000
     22 C           2.7546   -4.0578    0.8085 C.ar    1  UNL1        0.0000
     23 C           2.9200    2.9127   -0.0019 C.ar    1  UNL1        0.0000
     24 C           4.0648    2.7418    0.8008 C.ar    1  UNL1        0.0000
     25 C           4.2595    1.5227    1.6717 C.3     1  UNL1        0.0000
     26 C           5.0473    3.7330    0.7694 C.ar    1  UNL1        0.0000
     27 C           4.9068    4.8870   -0.0059 C.ar    1  UNL1        0.0000
     28 C           5.9613    5.9648    0.0172 C.3     1  UNL1        0.0000
     29 C           3.7545    5.0309   -0.7829 C.ar    1  UNL1        0.0000
     30 C           2.7559    4.0557   -0.8085 C.ar    1  UNL1        0.0000
     31 C          -2.9178    2.9148   -0.0021 C.ar    1  UNL1        0.0000
     32 C          -2.7491    4.0614    0.7984 C.ar    1  UNL1        0.0000
     33 C          -1.5289    4.2612    1.6666 C.3     1  UNL1        0.0000
     34 C          -3.7435    5.0407    0.7672 C.ar    1  UNL1        0.0000
     35 C          -4.8985    4.8951   -0.0056 C.ar    1  UNL1        0.0000
     36 C          -5.9798    5.9461    0.0177 C.3     1  UNL1        0.0000
     37 C          -5.0401    3.7411   -0.7805 C.ar    1  UNL1        0.0000
     38 C          -4.0617    2.7456   -0.8063 C.ar    1  UNL1        0.0000
     39 C          -2.9209   -2.9127    0.0022 C.ar    1  UNL1        0.0000
     40 C          -2.7538   -4.0594   -0.7985 C.ar    1  UNL1        0.0000
     41 C          -1.5341   -4.2606   -1.6669 C.3     1  UNL1        0.0000
     42 C          -3.7496   -5.0373   -0.7674 C.ar    1  UNL1        0.0000
     43 C          -4.9042   -4.8904    0.0057 C.ar    1  UNL1        0.0000
     44 C          -5.9869   -5.9399   -0.0176 C.3     1  UNL1        0.0000
     45 C          -5.0441   -3.7363    0.7809 C.ar    1  UNL1        0.0000
     46 C          -4.0645   -2.7421    0.8066 C.ar    1  UNL1        0.0000
     47 C           1.5400    4.2528   -1.6833 C.3     1  UNL1        0.0000
     48 C           1.5388   -4.2547    1.6834 C.3     1  UNL1        0.0000
     49 C          -4.2564    1.5276   -1.6786 C.3     1  UNL1        0.0000
     50 C          -4.2574   -1.5240    1.6792 C.3     1  UNL1        0.0000
     51 H           3.9813   -0.5992   -1.1604 H       1  UNL1        0.0000
     52 H           3.6325   -1.5806   -2.5678 H       1  UNL1        0.0000
     53 H           5.3019   -1.4435   -1.9850 H       1  UNL1        0.0000
     54 H           5.9427   -3.6037   -1.3696 H       1  UNL1        0.0000
     55 H           5.9938   -6.5134    0.9295 H       1  UNL1        0.0000
     56 H           6.9527   -5.5502   -0.2080 H       1  UNL1        0.0000
     57 H           5.7556   -6.6985   -0.8091 H       1  UNL1        0.0000
     58 H           3.9827    0.5967    1.1598 H       1  UNL1        0.0000
     59 H           3.6339    1.5779    2.5674 H       1  UNL1        0.0000
     60 H           5.3033    1.4409    1.9845 H       1  UNL1        0.0000
     61 H           5.9442    3.6011    1.3692 H       1  UNL1        0.0000
     62 H           5.7570    6.6962    0.8087 H       1  UNL1        0.0000
     63 H           5.9955    6.5107   -0.9298 H       1  UNL1        0.0000
     64 H           6.9541    5.5477    0.2082 H       1  UNL1        0.0000
     65 H          -1.5802    3.6366    2.5631 H       1  UNL1        0.0000
     66 H          -0.6031    3.9868    1.1529 H       1  UNL1        0.0000
     67 H          -1.4499    5.3057    1.9779 H       1  UNL1        0.0000
     68 H          -3.6135    5.9390    1.3654 H       1  UNL1        0.0000
     69 H          -5.5666    6.9397    0.2132 H       1  UNL1        0.0000
     70 H          -6.5230    5.9816   -0.9309 H       1  UNL1        0.0000
     71 H          -6.7130    5.7367    0.8062 H       1  UNL1        0.0000
     72 H          -1.5847   -3.6358   -2.5633 H       1  UNL1        0.0000
     73 H          -0.6079   -3.9875   -1.1533 H       1  UNL1        0.0000
     74 H          -1.4564   -5.3051   -1.9784 H       1  UNL1        0.0000
     75 H          -3.6208   -5.9357   -1.3657 H       1  UNL1        0.0000
     76 H          -6.5304   -5.9744    0.9308 H       1  UNL1        0.0000
     77 H          -6.7196   -5.7297   -0.8064 H       1  UNL1        0.0000
     78 H          -5.5749   -6.9340   -0.2127 H       1  UNL1        0.0000
     79 H           0.6118    3.9814   -1.1725 H       1  UNL1        0.0000
     80 H           1.4633    5.2960   -1.9994 H       1  UNL1        0.0000
     81 H           1.5947    3.6242   -2.5768 H       1  UNL1        0.0000
     82 H           1.5935   -3.6260    2.5769 H       1  UNL1        0.0000
     83 H           0.6105   -3.9834    1.1726 H       1  UNL1        0.0000
     84 H           1.4621   -5.2979    1.9998 H       1  UNL1        0.0000
     85 H          -3.6287    1.5821   -2.5727 H       1  UNL1        0.0000
     86 H          -3.9823    0.6010   -1.1662 H       1  UNL1        0.0000
     87 H          -5.2997    1.4477   -1.9937 H       1  UNL1        0.0000
     88 H          -5.3006   -1.4426    1.9943 H       1  UNL1        0.0000
     89 H          -3.6298   -1.5796    2.5734 H       1  UNL1        0.0000
     90 H          -3.9820   -0.5977    1.1671 H       1  UNL1        0.0000
     91 H           3.6297   -5.9256    1.3911 H       1  UNL1        0.0000
     92 H          -5.9334    3.6138   -1.3867 H       1  UNL1        0.0000
     93 H          -5.9372   -3.6079    1.3872 H       1  UNL1        0.0000
     94 H           3.6310    5.9234   -1.3910 H       1  UNL1        0.0000
@<TRIPOS>BOND
     1     2    11    1
     2     2    10    1
     3     2    13    1
     4     2     8    1
     5     2     1    1
     6     3     9    1
     7     4    39    1
     8     4    14    1
     9     5    15    1
    10     5     7    1
    11     6    12    1
    12     7     1    1
    13     8     5    1
    14     9     1    1
    15    10     3    1
    16    11     6    1
    17    12     1    1
    18    13     4    1
    19    14     1    1
    20    15    22   ar
    21    16    18   ar
    22    16    15   ar
    23    17    51    1
    24    17    16    1
    25    18    19   ar
    26    19    21   ar
    27    20    19    1
    28    20    55    1
    29    21    22   ar
    30    21    91    1
    31    22    48    1
    32    23     3    1
    33    23    24   ar
    34    24    25    1
    35    25    60    1
    36    25    59    1
    37    26    24   ar
    38    26    61    1
    39    27    28    1
    40    27    26   ar
    41    28    64    1
    42    28    62    1
    43    29    27   ar
    44    30    29   ar
    45    30    23   ar
    46    31     6    1
    47    31    32   ar
    48    32    33    1
    49    33    67    1
    50    33    65    1
    51    34    32   ar
    52    34    68    1
    53    35    36    1
    54    35    34   ar
    55    36    69    1
    56    36    71    1
    57    37    35   ar
    58    38    37   ar
    59    38    31   ar
    60    39    46   ar
    61    40    42   ar
    62    40    39   ar
    63    41    73    1
    64    41    40    1
    65    42    43   ar
    66    43    45   ar
    67    44    43    1
    68    44    76    1
    69    45    46   ar
    70    45    93    1
    71    46    50    1
    72    47    79    1
    73    47    30    1
    74    48    84    1
    75    48    82    1
    76    49    86    1
    77    49    38    1
    78    50    88    1
    79    50    89    1
    80    52    17    1
    81    53    17    1
    82    54    18    1
    83    56    20    1
    84    57    20    1
    85    58    25    1
    86    63    28    1
    87    66    33    1
    88    70    36    1
    89    72    41    1
    90    74    41    1
    91    75    42    1
    92    77    44    1
    93    78    44    1
    94    80    47    1
    95    81    47    1
    96    83    48    1
    97    85    49    1
    98    87    49    1
    99    90    50    1
   100    92    37    1
   101    94    29    1
