@<TRIPOS>MOLECULE
RhRh_ACyPentyl4_26_sp
 126 141 0 0 0
SMALL
GASTEIGER

@<TRIPOS>ATOM
      1 Rh         -1.1141   -0.1295   -1.5176 Rh      1  UNL1        0.0000
      2 Rh          0.2125    0.0215    0.4670 Rh      1  UNL1        0.0000
      3 C           0.2959    2.3815   -1.1949 C.3     1  UNL1        0.0000
      4 C          -2.4961    0.9159    0.8136 C.3     1  UNL1        0.0000
      5 C          -1.1470   -2.5024    0.1192 C.3     1  UNL1        0.0000
      6 C           1.6066   -1.0198   -1.8474 C.3     1  UNL1        0.0000
      7 O          -0.5000    1.7821   -1.9823 O.3     1  UNL1        0.0000
      8 O           0.8030    1.8946   -0.1357 O.3     1  UNL1        0.0000
      9 O           0.5331   -0.8823   -2.5096 O.3     1  UNL1        0.0000
     10 O           1.7448   -0.8199   -0.5988 O.3     1  UNL1        0.0000
     11 O          -0.4510   -1.8490    0.9601 O.3     1  UNL1        0.0000
     12 O          -1.6357   -2.0453   -0.9587 O.3     1  UNL1        0.0000
     13 O          -1.3977    0.8387    1.4449 O.3     1  UNL1        0.0000
     14 O          -2.6744    0.6308   -0.4132 O.3     1  UNL1        0.0000
     15 N           1.1416    4.4599   -0.3031 N.am    1  UNL1        0.0000
     16 N           4.0182   -1.0084   -1.8103 N.am    1  UNL1        0.0000
     17 N          -0.2565   -4.4139    1.2690 N.am    1  UNL1        0.0000
     18 N          -4.9081    0.9580    0.8799 N.am    1  UNL1        0.0000
     19 C           0.6722    3.8323   -1.5471 C.3     1  UNL1        0.0000
     20 C          -0.5334    4.5828   -2.1777 C.3     1  UNL1        0.0000
     21 C          -0.4822    4.2784   -3.6946 C.3     1  UNL1        0.0000
     22 C           0.8932    3.6158   -3.9569 C.3     1  UNL1        0.0000
     23 C           1.7188    3.8744   -2.6915 C.3     1  UNL1        0.0000
     24 C           2.4740    4.4436    0.1688 C.2     1  UNL1        0.0000
     25 C           2.4015    4.7651    1.6222 C.ar    1  UNL1        0.0000
     26 C           3.4193    4.9171    2.5511 C.ar    1  UNL1        0.0000
     27 C           3.0465    5.1895    3.8729 C.ar    1  UNL1        0.0000
     28 C           1.6980    5.3044    4.2355 C.ar    1  UNL1        0.0000
     29 C           0.6787    5.1516    3.2881 C.ar    1  UNL1        0.0000
     30 C           1.0618    4.8818    1.9829 C.ar    1  UNL1        0.0000
     31 C           0.2399    4.6298    0.7717 C.2     1  UNL1        0.0000
     32 C           2.8616   -1.4756   -2.6043 C.3     1  UNL1        0.0000
     33 C           2.8526   -3.0012   -2.8573 C.3     1  UNL1        0.0000
     34 C           3.9063   -3.2145   -3.9594 C.3     1  UNL1        0.0000
     35 C           4.0080   -1.8568   -4.7111 C.3     1  UNL1        0.0000
     36 C           2.9585   -0.9428   -4.0519 C.3     1  UNL1        0.0000
     37 C           4.8107   -1.7472   -0.9098 C.2     1  UNL1        0.0000
     38 C           5.5020   -0.7445   -0.0478 C.ar    1  UNL1        0.0000
     39 C           6.4049   -0.9353    0.9863 C.ar    1  UNL1        0.0000
     40 C           6.8548    0.2062    1.6617 C.ar    1  UNL1        0.0000
     41 C           6.4046    1.4843    1.3048 C.ar    1  UNL1        0.0000
     42 C           5.4933    1.6698    0.2573 C.ar    1  UNL1        0.0000
     43 C           5.0641    0.5285   -0.4050 C.ar    1  UNL1        0.0000
     44 C           4.0898    0.3750   -1.5101 C.2     1  UNL1        0.0000
     45 C          -1.4086   -3.9794    0.4661 C.3     1  UNL1        0.0000
     46 C          -2.7810   -4.1122    1.1758 C.3     1  UNL1        0.0000
     47 C          -3.7851   -4.0739    0.0178 C.3     1  UNL1        0.0000
     48 C          -3.0994   -4.8249   -1.1460 C.3     1  UNL1        0.0000
     49 C          -1.5879   -4.8465   -0.8093 C.3     1  UNL1        0.0000
     50 C          -0.1730   -4.4361    2.6823 C.2     1  UNL1        0.0000
     51 C           1.2846   -4.4717    3.0018 C.ar    1  UNL1        0.0000
     52 C           1.9224   -4.5332    4.2311 C.ar    1  UNL1        0.0000
     53 C           3.3221   -4.4876    4.2295 C.ar    1  UNL1        0.0000
     54 C           4.0424   -4.3779    3.0326 C.ar    1  UNL1        0.0000
     55 C           3.3914   -4.3185    1.7941 C.ar    1  UNL1        0.0000
     56 C           2.0048   -4.3755    1.8125 C.ar    1  UNL1        0.0000
     57 C           1.0295   -4.2932    0.6995 C.2     1  UNL1        0.0000
     58 C          -3.7169    1.4291    1.5950 C.3     1  UNL1        0.0000
     59 C          -3.6241    2.9774    1.7150 C.3     1  UNL1        0.0000
     60 C          -2.7466    3.1925    2.9496 C.3     1  UNL1        0.0000
     61 C          -3.2507    2.1370    3.9446 C.3     1  UNL1        0.0000
     62 C          -3.6963    0.9333    3.0786 C.3     1  UNL1        0.0000
     63 C          -5.5925    1.6474   -0.1498 C.2     1  UNL1        0.0000
     64 C          -6.4605    0.6293   -0.8098 C.ar    1  UNL1        0.0000
     65 C          -7.3797    0.7778   -1.8367 C.ar    1  UNL1        0.0000
     66 C          -8.0362   -0.3760   -2.2823 C.ar    1  UNL1        0.0000
     67 C          -7.7698   -1.6270   -1.7108 C.ar    1  UNL1        0.0000
     68 C          -6.8386   -1.7652   -0.6746 C.ar    1  UNL1        0.0000
     69 C          -6.1963   -0.6150   -0.2412 C.ar    1  UNL1        0.0000
     70 C          -5.1495   -0.4286    0.7957 C.2     1  UNL1        0.0000
     71 H          -1.4764    4.3033   -1.7138 H       1  UNL1        0.0000
     72 H          -0.3761    5.6482   -1.9864 H       1  UNL1        0.0000
     73 H          -0.5990    5.2021   -4.2692 H       1  UNL1        0.0000
     74 H          -1.2967    3.6110   -3.9830 H       1  UNL1        0.0000
     75 H           1.3942    4.0124   -4.8443 H       1  UNL1        0.0000
     76 H           0.7712    2.5396   -4.1039 H       1  UNL1        0.0000
     77 H           2.1313    4.8881   -2.7005 H       1  UNL1        0.0000
     78 H           2.5399    3.1797   -2.5439 H       1  UNL1        0.0000
     79 H           4.4591    4.8214    2.2577 H       1  UNL1        0.0000
     80 H           3.8125    5.3111    4.6322 H       1  UNL1        0.0000
     81 H           1.4420    5.5121    5.2695 H       1  UNL1        0.0000
     82 H          -0.3689    5.2302    3.5559 H       1  UNL1        0.0000
     83 H           3.0113   -3.5893   -1.9613 H       1  UNL1        0.0000
     84 H           1.8490   -3.2280   -3.2290 H       1  UNL1        0.0000
     85 H           3.6184   -4.0361   -4.6211 H       1  UNL1        0.0000
     86 H           4.8639   -3.4832   -3.5064 H       1  UNL1        0.0000
     87 H           5.0080   -1.4288   -4.5910 H       1  UNL1        0.0000
     88 H           3.8306   -1.9539   -5.7857 H       1  UNL1        0.0000
     89 H           1.9749   -1.0819   -4.5069 H       1  UNL1        0.0000
     90 H           3.1992    0.1177   -4.0916 H       1  UNL1        0.0000
     91 H           5.1169    2.6495   -0.0191 H       1  UNL1        0.0000
     92 H          -2.9548   -3.3405    1.9245 H       1  UNL1        0.0000
     93 H          -2.8003   -5.0800    1.6828 H       1  UNL1        0.0000
     94 H          -4.7419   -4.5173    0.3092 H       1  UNL1        0.0000
     95 H          -3.9780   -3.0367   -0.2587 H       1  UNL1        0.0000
     96 H          -3.4796   -5.8471   -1.2370 H       1  UNL1        0.0000
     97 H          -3.2847   -4.3250   -2.0996 H       1  UNL1        0.0000
     98 H          -1.2569   -5.8572   -0.5549 H       1  UNL1        0.0000
     99 H          -0.9582   -4.4896   -1.6210 H       1  UNL1        0.0000
    100 H           1.3515   -4.6021    5.1506 H       1  UNL1        0.0000
    101 H           3.8599   -4.5290    5.1716 H       1  UNL1        0.0000
    102 H           5.1265   -4.3331    3.0674 H       1  UNL1        0.0000
    103 H           3.9398   -4.2089    0.8646 H       1  UNL1        0.0000
    104 H          -4.6330    3.3589    1.8910 H       1  UNL1        0.0000
    105 H          -3.2414    3.4554    0.8152 H       1  UNL1        0.0000
    106 H          -1.7006    3.0138    2.6931 H       1  UNL1        0.0000
    107 H          -2.8272    4.2168    3.3255 H       1  UNL1        0.0000
    108 H          -4.1070    2.5299    4.5041 H       1  UNL1        0.0000
    109 H          -2.4901    1.8520    4.6765 H       1  UNL1        0.0000
    110 H          -3.0295    0.0794    3.1803 H       1  UNL1        0.0000
    111 H          -4.6971    0.5933    3.3485 H       1  UNL1        0.0000
    112 H          -6.6173   -2.7283   -0.2286 H       1  UNL1        0.0000
    113 O          -4.5661   -1.2779    1.4420 O.2     1  UNL1        0.0000
    114 O          -5.4917    2.8218   -0.4328 O.2     1  UNL1        0.0000
    115 O           1.2437   -4.1179   -0.4847 O.2     1  UNL1        0.0000
    116 O          -1.0973   -4.4268    3.4668 O.2     1  UNL1        0.0000
    117 O           3.4309    1.2329   -2.0608 O.2     1  UNL1        0.0000
    118 O           4.9262   -2.9569   -0.8461 O.2     1  UNL1        0.0000
    119 O          -0.9696    4.5510    0.6924 O.2     1  UNL1        0.0000
    120 O           3.4768    4.2223   -0.4794 O.2     1  UNL1        0.0000
    121 H           6.7366   -1.9313    1.2591 H       1  UNL1        0.0000
    122 H           7.5595    0.1007    2.4806 H       1  UNL1        0.0000
    123 H           6.7685    2.3461    1.8556 H       1  UNL1        0.0000
    124 H          -7.5703    1.7515   -2.2747 H       1  UNL1        0.0000
    125 H          -8.7611   -0.3033   -3.0868 H       1  UNL1        0.0000
    126 H          -8.2927   -2.5028   -2.0817 H       1  UNL1        0.0000
@<TRIPOS>BOND
     1     1    12    1
     2     1    14    1
     3     1     2    1
     4     2    11    1
     5     2    13    1
     6     3     8    1
     7     4    13    1
     8     4    58    1
     9     5    45    1
    10     5    11    1
    11     6    10    1
    12     7     1    1
    13     7     3    1
    14     8     2    1
    15     9     6    1
    16     9     1    1
    17    10     2    1
    18    12     5    1
    19    14     4    1
    20    15    24   am
    21    15    31   am
    22    16    44   am
    23    16    37   am
    24    17    50   am
    25    18    58    1
    26    19     3    1
    27    19    15    1
    28    20    72    1
    29    20    71    1
    30    20    19    1
    31    21    20    1
    32    22    21    1
    33    22    23    1
    34    23    78    1
    35    23    19    1
    36    24    25    1
    37    25    30   ar
    38    25    26   ar
    39    26    27   ar
    40    27    28   ar
    41    27    80    1
    42    28    81    1
    43    29    82    1
    44    29    28   ar
    45    30    29   ar
    46    31    30    1
    47    32     6    1
    48    32    16    1
    49    33    32    1
    50    33    83    1
    51    34    86    1
    52    34    33    1
    53    35    87    1
    54    35    36    1
    55    35    34    1
    56    36    32    1
    57    37   118    2
    58    37    38    1
    59    38    39   ar
    60    39   121    1
    61    39    40   ar
    62    40   122    1
    63    41    40   ar
    64    41   123    1
    65    42    41   ar
    66    43    38   ar
    67    43    42   ar
    68    44    43    1
    69    45    46    1
    70    45    17    1
    71    46    93    1
    72    46    92    1
    73    47    94    1
    74    47    46    1
    75    48    49    1
    76    48    47    1
    77    49    98    1
    78    49    45    1
    79    50    51    1
    80    50   116    2
    81    51    52   ar
    82    52   100    1
    83    53    52   ar
    84    53   101    1
    85    54   102    1
    86    54    53   ar
    87    55    56   ar
    88    55    54   ar
    89    56    51   ar
    90    57    17   am
    91    57    56    1
    92    58    59    1
    93    58    62    1
    94    59   104    1
    95    59    60    1
    96    60   107    1
    97    60    61    1
    98    61   108    1
    99    61   109    1
   100    62   110    1
   101    62   111    1
   102    62    61    1
   103    63    18   am
   104    64    69   ar
   105    64    63    1
   106    65    64   ar
   107    66    65   ar
   108    66    67   ar
   109    67    68   ar
   110    68    69   ar
   111    68   112    1
   112    69    70    1
   113    70    18   am
   114    70   113    2
   115    73    21    1
   116    74    21    1
   117    75    22    1
   118    76    22    1
   119    77    23    1
   120    79    26    1
   121    84    33    1
   122    85    34    1
   123    88    35    1
   124    89    36    1
   125    90    36    1
   126    91    42    1
   127    95    47    1
   128    96    48    1
   129    97    48    1
   130    99    49    1
   131   103    55    1
   132   105    59    1
   133   106    60    1
   134   114    63    2
   135   115    57    2
   136   117    44    2
   137   119    31    2
   138   120    24    2
   139   124    65    1
   140   125    66    1
   141   126    67    1
