@<TRIPOS>MOLECULE
RhRh_MeMePh-O2C3_20kcal_2_sp
 94 101 0 0 0
SMALL
GASTEIGER

@<TRIPOS>ATOM
      1 Rh          0.1604   -0.8539    1.1726 Rh      1  UNL1        0.0000
      2 Rh          0.1070   -0.8048   -1.2121 Rh      1  UNL1        0.0000
      3 C           2.2459   -2.4023   -0.0857 C.3     1  UNL1        0.0000
      4 C           1.7533    1.2557    0.0037 C.3     1  UNL1        0.0000
      5 C          -1.9286    0.8194    0.0443 C.3     1  UNL1        0.0000
      6 C          -1.5796   -2.8310   -0.0317 C.3     1  UNL1        0.0000
      7 O          -1.1864   -2.4090    1.1034 O.3     1  UNL1        0.0000
      8 O          -1.1473   -2.4307   -1.1583 O.3     1  UNL1        0.0000
      9 O          -1.3960    0.5027    1.1562 O.3     1  UNL1        0.0000
     10 O          -1.5497    0.3888   -1.0936 O.3     1  UNL1        0.0000
     11 O           1.5006    0.6902    1.1171 O.3     1  UNL1        0.0000
     12 O           1.3157    0.8676   -1.1271 O.3     1  UNL1        0.0000
     13 O           1.7385   -2.1601    1.0549 O.3     1  UNL1        0.0000
     14 O           1.7717   -2.0194   -1.2032 O.3     1  UNL1        0.0000
     15 C          -2.7137   -3.8662   -0.0391 C.3     1  UNL1        0.0000
     16 C          -4.0162   -3.0478    0.0886 C.ar    1  UNL1        0.0000
     17 C          -4.9935   -3.0452   -0.9123 C.ar    1  UNL1        0.0000
     18 C          -6.1778   -2.3212   -0.7568 C.ar    1  UNL1        0.0000
     19 C          -6.4060   -1.5846    0.4031 C.ar    1  UNL1        0.0000
     20 C          -5.4320   -1.5678    1.4030 C.ar    1  UNL1        0.0000
     21 C          -4.2480   -2.2837    1.2436 C.ar    1  UNL1        0.0000
     22 C          -3.1146    1.7895    0.0541 C.3     1  UNL1        0.0000
     23 C          -2.6498    3.1847   -0.4131 C.ar    1  UNL1        0.0000
     24 C          -3.4017    4.3140   -0.0614 C.ar    1  UNL1        0.0000
     25 C          -3.0602    5.5825   -0.5282 C.ar    1  UNL1        0.0000
     26 C          -1.9515    5.7512   -1.3550 C.ar    1  UNL1        0.0000
     27 C          -1.1914    4.6387   -1.7066 C.ar    1  UNL1        0.0000
     28 C          -1.5364    3.3700   -1.2448 C.ar    1  UNL1        0.0000
     29 C           2.6298    2.5121    0.0499 C.3     1  UNL1        0.0000
     30 C           1.7385    3.7126    0.4334 C.ar    1  UNL1        0.0000
     31 C           0.6673    3.5762    1.3281 C.ar    1  UNL1        0.0000
     32 C          -0.0920    4.6805    1.7101 C.ar    1  UNL1        0.0000
     33 C           0.2094    5.9485    1.2195 C.ar    1  UNL1        0.0000
     34 C           1.2763    6.0996    0.3363 C.ar    1  UNL1        0.0000
     35 C           2.0275    4.9927   -0.0570 C.ar    1  UNL1        0.0000
     36 C           3.5794   -3.1633   -0.1089 C.3     1  UNL1        0.0000
     37 C           4.6638   -2.0664   -0.0713 C.ar    1  UNL1        0.0000
     38 C           4.7668   -1.1564   -1.1354 C.ar    1  UNL1        0.0000
     39 C           5.7534   -0.1732   -1.1430 C.ar    1  UNL1        0.0000
     40 C           6.6474   -0.0635   -0.0764 C.ar    1  UNL1        0.0000
     41 C           6.5410   -0.9475    0.9947 C.ar    1  UNL1        0.0000
     42 C           5.5582   -1.9398    0.9964 C.ar    1  UNL1        0.0000
     43 C           3.7126    2.3282    1.1386 C.3     1  UNL1        0.0000
     44 C           3.3021    2.6953   -1.3216 C.3     1  UNL1        0.0000
     45 C           3.6460   -4.1132    1.0958 C.3     1  UNL1        0.0000
     46 C           3.7033   -3.9866   -1.4067 C.3     1  UNL1        0.0000
     47 C          -2.6485   -4.6898   -1.3329 C.3     1  UNL1        0.0000
     48 C          -2.5692   -4.8149    1.1693 C.3     1  UNL1        0.0000
     49 C          -3.7116    1.8238    1.4728 C.3     1  UNL1        0.0000
     50 C          -4.1735    1.2635   -0.9456 C.3     1  UNL1        0.0000
     51 H          -4.8434   -3.6115   -1.8229 H       1  UNL1        0.0000
     52 H          -6.9211   -2.3372   -1.5480 H       1  UNL1        0.0000
     53 H          -7.3274   -1.0240    0.5252 H       1  UNL1        0.0000
     54 H          -5.5922   -0.9928    2.3099 H       1  UNL1        0.0000
     55 H          -3.4897   -2.2403    2.0164 H       1  UNL1        0.0000
     56 H          -4.2710    4.2110    0.5777 H       1  UNL1        0.0000
     57 H          -3.6632    6.4387   -0.2400 H       1  UNL1        0.0000
     58 H          -1.6763    6.7392   -1.7107 H       1  UNL1        0.0000
     59 H          -0.3095    4.7549   -2.3279 H       1  UNL1        0.0000
     60 H          -0.9248    2.5258   -1.5341 H       1  UNL1        0.0000
     61 H           0.4116    2.6011    1.7224 H       1  UNL1        0.0000
     62 H          -0.9334    4.5414    2.3813 H       1  UNL1        0.0000
     63 H          -0.3895    6.8057    1.5095 H       1  UNL1        0.0000
     64 H           1.5222    7.0805   -0.0601 H       1  UNL1        0.0000
     65 H           2.8470    5.1384   -0.7508 H       1  UNL1        0.0000
     66 H           4.0614   -1.2112   -1.9566 H       1  UNL1        0.0000
     67 H           5.8226    0.5103   -1.9836 H       1  UNL1        0.0000
     68 H           7.4139    0.7051   -0.0801 H       1  UNL1        0.0000
     69 H           7.2240   -0.8707    1.8353 H       1  UNL1        0.0000
     70 H           5.4993   -2.6156    1.8404 H       1  UNL1        0.0000
     71 H           4.3274    3.2314    1.1850 H       1  UNL1        0.0000
     72 H           3.2560    2.1667    2.1154 H       1  UNL1        0.0000
     73 H           4.3577    1.4758    0.9073 H       1  UNL1        0.0000
     74 H           3.8105    1.7732   -1.6068 H       1  UNL1        0.0000
     75 H           2.5729    2.9394   -2.0958 H       1  UNL1        0.0000
     76 H           4.0525    3.4881   -1.2767 H       1  UNL1        0.0000
     77 H           4.6041   -4.6403    1.1063 H       1  UNL1        0.0000
     78 H           3.5165   -3.5829    2.0393 H       1  UNL1        0.0000
     79 H           2.8502   -4.8591    1.0216 H       1  UNL1        0.0000
     80 H           3.6100   -3.3631   -2.2949 H       1  UNL1        0.0000
     81 H           4.6767   -4.4843   -1.4279 H       1  UNL1        0.0000
     82 H           2.9213   -4.7509   -1.4485 H       1  UNL1        0.0000
     83 H          -3.4624   -5.4197   -1.3550 H       1  UNL1        0.0000
     84 H          -2.7066   -4.0592   -2.2203 H       1  UNL1        0.0000
     85 H          -1.7023   -5.2354   -1.3755 H       1  UNL1        0.0000
     86 H          -3.4066   -5.5179    1.1800 H       1  UNL1        0.0000
     87 H          -1.6380   -5.3852    1.0959 H       1  UNL1        0.0000
     88 H          -2.5568   -4.2709    2.1129 H       1  UNL1        0.0000
     89 H          -4.6528    2.3776    1.4796 H       1  UNL1        0.0000
     90 H          -3.9221    0.8076    1.8094 H       1  UNL1        0.0000
     91 H          -3.0242    2.2869    2.1828 H       1  UNL1        0.0000
     92 H          -5.0310    1.9421   -0.9475 H       1  UNL1        0.0000
     93 H          -3.7607    1.2197   -1.9539 H       1  UNL1        0.0000
     94 H          -4.5182    0.2658   -0.6617 H       1  UNL1        0.0000
@<TRIPOS>BOND
     1     2    14    1
     2     2     8    1
     3     2    12    1
     4     2    10    1
     5     2     1    1
     6     3    13    1
     7     4    29    1
     8     4    11    1
     9     5    22    1
    10     5     9    1
    11     6     7    1
    12     7     1    1
    13     8     6    1
    14     9     1    1
    15    10     5    1
    16    11     1    1
    17    12     4    1
    18    13     1    1
    19    14     3    1
    20    15     6    1
    21    15    16    1
    22    15    48    1
    23    16    21   ar
    24    17    18   ar
    25    17    16   ar
    26    18    19   ar
    27    19    53    1
    28    19    20   ar
    29    20    54    1
    30    21    20   ar
    31    21    55    1
    32    22    49    1
    33    23    24   ar
    34    23    22    1
    35    24    56    1
    36    25    57    1
    37    25    24   ar
    38    26    25   ar
    39    27    26   ar
    40    27    28   ar
    41    28    23   ar
    42    29    30    1
    43    29    43    1
    44    30    31   ar
    45    31    32   ar
    46    31    61    1
    47    32    62    1
    48    33    63    1
    49    33    32   ar
    50    34    33   ar
    51    35    34   ar
    52    35    30   ar
    53    36     3    1
    54    36    37    1
    55    36    45    1
    56    37    42   ar
    57    38    37   ar
    58    39    38   ar
    59    39    40   ar
    60    40    41   ar
    61    41    42   ar
    62    41    69    1
    63    42    70    1
    64    43    71    1
    65    43    72    1
    66    44    76    1
    67    44    29    1
    68    45    77    1
    69    45    78    1
    70    46    36    1
    71    47    15    1
    72    48    86    1
    73    48    88    1
    74    49    89    1
    75    49    90    1
    76    49    91    1
    77    50    94    1
    78    50    22    1
    79    51    17    1
    80    52    18    1
    81    58    26    1
    82    59    27    1
    83    60    28    1
    84    64    34    1
    85    65    35    1
    86    66    38    1
    87    67    39    1
    88    68    40    1
    89    73    43    1
    90    74    44    1
    91    75    44    1
    92    79    45    1
    93    80    46    1
    94    81    46    1
    95    82    46    1
    96    83    47    1
    97    84    47    1
    98    85    47    1
    99    87    48    1
   100    92    50    1
   101    93    50    1
