@<TRIPOS>MOLECULE
RhRh_cis-Cy-fused-Hback-S-PTV4_26_sp
 146 157 0 0 0
SMALL
GASTEIGER

@<TRIPOS>ATOM
      1 Rh         -0.1090   -0.1321   -0.4654 Rh      1  UNL1        0.0000
      2 Rh         -0.1392    0.0305    1.9211 Rh      1  UNL1        0.0000
      3 C          -2.0631   -1.8054    0.8288 C.3     1  UNL1        0.0000
      4 C           1.8465    1.6660    0.6319 C.3     1  UNL1        0.0000
      5 C          -1.8861    1.8747    0.5638 C.3     1  UNL1        0.0000
      6 C           1.6181   -2.0025    0.8893 C.3     1  UNL1        0.0000
      7 O           1.2303   -1.6689   -0.2767 O.3     1  UNL1        0.0000
      8 O           1.1970   -1.5308    1.9838 O.3     1  UNL1        0.0000
      9 O          -1.6407   -1.4750   -0.3265 O.3     1  UNL1        0.0000
     10 O          -1.6900   -1.3173    1.9332 O.3     1  UNL1        0.0000
     11 O          -1.4610    1.3934   -0.5346 O.3     1  UNL1        0.0000
     12 O          -1.4756    1.5798    1.7237 O.3     1  UNL1        0.0000
     13 O           1.4334    1.2090   -0.4804 O.3     1  UNL1        0.0000
     14 O           1.4304    1.3427    1.7829 O.3     1  UNL1        0.0000
     15 N           3.7098   -2.7114   -0.0691 N.am    1  UNL1        0.0000
     16 N          -2.6088   -3.9259   -0.1217 N.am    1  UNL1        0.0000
     17 N          -4.0286    2.2869   -0.4513 N.am    1  UNL1        0.0000
     18 N           2.5703    3.6954   -0.4537 N.am    1  UNL1        0.0000
     19 C           4.2157   -3.6141   -1.0089 C.2     1  UNL1        0.0000
     20 C           4.1655   -1.4092   -0.2767 C.2     1  UNL1        0.0000
     21 C          -1.3386   -4.4893   -0.0298 C.2     1  UNL1        0.0000
     22 C          -3.1935   -4.1167   -1.3789 C.2     1  UNL1        0.0000
     23 C          -4.6156    2.9757   -1.5188 C.2     1  UNL1        0.0000
     24 C          -4.4019    0.9420   -0.4126 C.2     1  UNL1        0.0000
     25 C           3.4417    4.1628   -1.4358 C.2     1  UNL1        0.0000
     26 C           1.2899    4.2313   -0.5521 C.2     1  UNL1        0.0000
     27 C           2.6839   -3.0956    0.9027 C.3     1  UNL1        0.0000
     28 C           3.2710   -3.5193    2.2629 C.3     1  UNL1        0.0000
     29 C           4.0244   -2.4049    2.9972 C.3     1  UNL1        0.0000
     30 C           2.1918   -4.1636    3.1445 C.3     1  UNL1        0.0000
     31 C          -3.1062   -2.9242    0.8198 C.3     1  UNL1        0.0000
     32 C          -3.4838   -3.4815    2.2029 C.3     1  UNL1        0.0000
     33 C          -4.2363   -4.8094    2.0603 C.3     1  UNL1        0.0000
     34 C          -4.3403   -2.4535    2.9553 C.3     1  UNL1        0.0000
     35 C          -3.0038    2.9031    0.3965 C.3     1  UNL1        0.0000
     36 C          -3.5797    3.5562    1.6667 C.3     1  UNL1        0.0000
     37 C          -4.2860    2.5780    2.6116 C.3     1  UNL1        0.0000
     38 C          -2.5021    4.3789    2.3872 C.3     1  UNL1        0.0000
     39 C           2.9832    2.6752    0.5106 C.3     1  UNL1        0.0000
     40 C           3.5555    3.2843    1.8059 C.3     1  UNL1        0.0000
     41 C           2.5540    4.1306    2.5993 C.3     1  UNL1        0.0000
     42 C           4.2120    2.2016    2.6740 C.3     1  UNL1        0.0000
     43 C           0.6700    6.5385   -1.3748 C.3     1  UNL1        0.0000
     44 C           1.2547    5.1712   -1.7504 C.3     1  UNL1        0.0000
     45 C           2.7190    5.2324   -2.2472 C.3     1  UNL1        0.0000
     46 C           3.3722    6.6092   -2.0067 C.3     1  UNL1        0.0000
     47 C           3.0614    7.1260   -0.5968 C.3     1  UNL1        0.0000
     48 C           1.5368    7.2751   -0.3374 C.3     1  UNL1        0.0000
     49 C          -7.0343    2.3947   -1.4863 C.3     1  UNL1        0.0000
     50 C          -6.1914   -0.4722   -1.6189 C.3     1  UNL1        0.0000
     51 C          -7.4832   -0.0223   -0.9316 C.3     1  UNL1        0.0000
     52 C          -8.0374    1.2429   -1.5977 C.3     1  UNL1        0.0000
     53 C          -5.1564    0.6490   -1.7015 C.3     1  UNL1        0.0000
     54 C          -5.6630    2.0474   -2.1186 C.3     1  UNL1        0.0000
     55 C           0.8107   -4.3953   -2.5124 C.3     1  UNL1        0.0000
     56 C           0.2905   -5.5804   -1.6945 C.3     1  UNL1        0.0000
     57 C          -1.5205   -3.6886   -3.1290 C.3     1  UNL1        0.0000
     58 C          -0.1431   -4.0801   -3.6691 C.3     1  UNL1        0.0000
     59 C          -1.1601   -5.4034   -1.2353 C.3     1  UNL1        0.0000
     60 C          -2.1557   -4.8036   -2.2555 C.3     1  UNL1        0.0000
     61 C           7.7530   -2.2008   -1.4306 C.3     1  UNL1        0.0000
     62 C           6.6694   -3.2363   -1.1183 C.3     1  UNL1        0.0000
     63 C           6.0450   -0.3662   -1.6949 C.3     1  UNL1        0.0000
     64 C           7.3157   -0.8075   -0.9636 C.3     1  UNL1        0.0000
     65 C           4.9238   -1.4015   -1.5963 C.3     1  UNL1        0.0000
     66 C           5.3107   -2.8864   -1.7764 C.3     1  UNL1        0.0000
     67 H           2.1956   -3.9720    0.4641 H       1  UNL1        0.0000
     68 H           4.4516   -2.7997    3.9246 H       1  UNL1        0.0000
     69 H           3.3548   -1.5798    3.2471 H       1  UNL1        0.0000
     70 H           4.8416   -2.0005    2.3952 H       1  UNL1        0.0000
     71 H           1.6274   -4.9229    2.5950 H       1  UNL1        0.0000
     72 H           1.4810   -3.4154    3.4999 H       1  UNL1        0.0000
     73 H           2.6569   -4.6405    4.0127 H       1  UNL1        0.0000
     74 H          -3.9973   -2.5036    0.3434 H       1  UNL1        0.0000
     75 H          -5.1189   -4.6929    1.4208 H       1  UNL1        0.0000
     76 H          -4.5743   -5.1574    3.0409 H       1  UNL1        0.0000
     77 H          -3.6082   -5.5915    1.6255 H       1  UNL1        0.0000
     78 H          -5.2890   -2.2883    2.4313 H       1  UNL1        0.0000
     79 H          -3.8311   -1.4932    3.0423 H       1  UNL1        0.0000
     80 H          -4.5709   -2.8178    3.9612 H       1  UNL1        0.0000
     81 H          -2.5736    3.6980   -0.2221 H       1  UNL1        0.0000
     82 H          -5.0930    2.0398    2.1084 H       1  UNL1        0.0000
     83 H          -4.7201    3.1275    3.4532 H       1  UNL1        0.0000
     84 H          -3.5853    1.8383    3.0029 H       1  UNL1        0.0000
     85 H          -1.9759    5.0431    1.6942 H       1  UNL1        0.0000
     86 H          -1.7585    3.7275    2.8500 H       1  UNL1        0.0000
     87 H          -2.9606    4.9924    3.1688 H       1  UNL1        0.0000
     88 H           3.7903    2.1260    0.0165 H       1  UNL1        0.0000
     89 H           1.7145    3.5238    2.9429 H       1  UNL1        0.0000
     90 H           2.1510    4.9515    2.0005 H       1  UNL1        0.0000
     91 H           3.0505    4.5664    3.4722 H       1  UNL1        0.0000
     92 H           4.8999    1.5848    2.0883 H       1  UNL1        0.0000
     93 H           3.4602    1.5397    3.1077 H       1  UNL1        0.0000
     94 H           4.7749    2.6683    3.4882 H       1  UNL1        0.0000
     95 H           3.9948   -4.3035    2.0010 H       1  UNL1        0.0000
     96 H          -2.5573   -3.6530    2.7599 H       1  UNL1        0.0000
     97 H          -4.3315    4.2588    1.2816 H       1  UNL1        0.0000
     98 H           4.3548    3.9488    1.4497 H       1  UNL1        0.0000
     99 H           0.6095    4.6906   -2.4946 H       1  UNL1        0.0000
    100 H           1.2543    8.3326   -0.3345 H       1  UNL1        0.0000
    101 H          -0.3441    6.3996   -0.9904 H       1  UNL1        0.0000
    102 H           4.4517    6.5165   -2.1583 H       1  UNL1        0.0000
    103 H           3.0004    7.3141   -2.7586 H       1  UNL1        0.0000
    104 H           3.5694    8.0813   -0.4348 H       1  UNL1        0.0000
    105 H           3.4937    6.4303    0.1323 H       1  UNL1        0.0000
    106 H           1.2984    6.8937    0.6610 H       1  UNL1        0.0000
    107 H           0.5845    7.1342   -2.2900 H       1  UNL1        0.0000
    108 H           2.8102    4.9642   -3.3035 H       1  UNL1        0.0000
    109 H          -8.9844    1.5405   -1.1344 H       1  UNL1        0.0000
    110 H          -7.4143    3.3105   -1.9485 H       1  UNL1        0.0000
    111 H          -6.4244   -0.7965   -2.6402 H       1  UNL1        0.0000
    112 H          -5.7442   -1.3348   -1.1173 H       1  UNL1        0.0000
    113 H          -7.2853    0.1817    0.1296 H       1  UNL1        0.0000
    114 H          -8.2212   -0.8305   -0.9650 H       1  UNL1        0.0000
    115 H          -8.2532    1.0358   -2.6549 H       1  UNL1        0.0000
    116 H          -6.8866    2.6198   -0.4216 H       1  UNL1        0.0000
    117 H          -4.3630    0.3467   -2.4000 H       1  UNL1        0.0000
    118 H          -5.7053    2.1769   -3.2024 H       1  UNL1        0.0000
    119 H           0.3464   -6.4884   -2.3070 H       1  UNL1        0.0000
    120 H           0.9220   -5.7511   -0.8177 H       1  UNL1        0.0000
    121 H           0.2505   -3.2595   -4.2800 H       1  UNL1        0.0000
    122 H           1.8146   -4.6288   -2.8786 H       1  UNL1        0.0000
    123 H          -1.4078   -2.7875   -2.5139 H       1  UNL1        0.0000
    124 H          -2.2204   -3.4393   -3.9319 H       1  UNL1        0.0000
    125 H          -0.2298   -4.9537   -4.3304 H       1  UNL1        0.0000
    126 H           0.9053   -3.5123   -1.8691 H       1  UNL1        0.0000
    127 H          -1.5473   -6.3787   -0.9082 H       1  UNL1        0.0000
    128 H          -2.6206   -5.5613   -2.8905 H       1  UNL1        0.0000
    129 H           6.9643   -4.2416   -1.4325 H       1  UNL1        0.0000
    130 H           6.5361   -3.2754   -0.0289 H       1  UNL1        0.0000
    131 H           7.1305   -0.8283    0.1189 H       1  UNL1        0.0000
    132 H           7.9521   -2.1804   -2.5109 H       1  UNL1        0.0000
    133 H           5.6781    0.5911   -1.3119 H       1  UNL1        0.0000
    134 H           6.2790   -0.2133   -2.7552 H       1  UNL1        0.0000
    135 H           8.1117   -0.0751   -1.1326 H       1  UNL1        0.0000
    136 H           8.6883   -2.4956   -0.9425 H       1  UNL1        0.0000
    137 H           4.1487   -1.1562   -2.3365 H       1  UNL1        0.0000
    138 H           5.3091   -3.1996   -2.8228 H       1  UNL1        0.0000
    139 O          -4.3514    4.1202   -1.8233 O.2     1  UNL1        0.0000
    140 O          -4.1124    0.1663    0.4777 O.2     1  UNL1        0.0000
    141 O          -0.5565   -4.2766    0.8786 O.2     1  UNL1        0.0000
    142 O          -4.2889   -3.7002   -1.6962 O.2     1  UNL1        0.0000
    143 O           3.9315   -0.4657    0.4536 O.2     1  UNL1        0.0000
    144 O           3.8618   -4.7716   -1.1088 O.2     1  UNL1        0.0000
    145 O           4.5882    3.7827   -1.5673 O.2     1  UNL1        0.0000
    146 O           0.3707    3.9755    0.2028 O.2     1  UNL1        0.0000
@<TRIPOS>BOND
     1     1     9    1
     2     1     7    1
     3     1     2    1
     4     2    10    1
     5     2     8    1
     6     3    31    1
     7     3    10    1
     8     4    39    1
     9     4    14    1
    10     5    35    1
    11     5    12    1
    12     6    27    1
    13     6     8    1
    14     7     6    1
    15     9     3    1
    16    11     1    1
    17    11     5    1
    18    12     2    1
    19    13     1    1
    20    13     4    1
    21    14     2    1
    22    15    27    1
    23    16    21   am
    24    16    31    1
    25    17    24   am
    26    17    35    1
    27    18    39    1
    28    19    15   am
    29    20    15   am
    30    20   143    2
    31    21   141    2
    32    22    16   am
    33    23    17   am
    34    24   140    2
    35    25    18   am
    36    26    18   am
    37    26   146    2
    38    27    67    1
    39    27    28    1
    40    28    29    1
    41    28    30    1
    42    29    69    1
    43    29    68    1
    44    30    72    1
    45    30    73    1
    46    31    74    1
    47    31    32    1
    48    32    96    1
    49    32    34    1
    50    33    32    1
    51    33    76    1
    52    34    79    1
    53    34    80    1
    54    35    81    1
    55    35    36    1
    56    36    38    1
    57    36    37    1
    58    37    84    1
    59    37    83    1
    60    38    86    1
    61    38    87    1
    62    39    88    1
    63    39    40    1
    64    40    41    1
    65    40    42    1
    66    41    89    1
    67    41    91    1
    68    42    93    1
    69    42    94    1
    70    43   101    1
    71    43    48    1
    72    44    99    1
    73    44    43    1
    74    44    26    1
    75    45   108    1
    76    45    46    1
    77    45    44    1
    78    45    25    1
    79    46    47    1
    80    47   104    1
    81    47    48    1
    82    47   105    1
    83    48   100    1
    84    48   106    1
    85    49   116    1
    86    50   112    1
    87    50    51    1
    88    51   113    1
    89    52    49    1
    90    52   109    1
    91    52    51    1
    92    53   117    1
    93    53    50    1
    94    53    24    1
    95    54   118    1
    96    54    53    1
    97    54    23    1
    98    54    49    1
    99    55   126    1
   100    55    56    1
   101    56    59    1
   102    56   120    1
   103    57   123    1
   104    57    60    1
   105    58    57    1
   106    58    55    1
   107    59   127    1
   108    59    21    1
   109    60   128    1
   110    60    22    1
   111    60    59    1
   112    61    62    1
   113    61    64    1
   114    61   136    1
   115    62   130    1
   116    63    65    1
   117    63   133    1
   118    63    64    1
   119    64   131    1
   120    65   137    1
   121    65    20    1
   122    66   138    1
   123    66    65    1
   124    66    62    1
   125    66    19    1
   126    70    29    1
   127    71    30    1
   128    75    33    1
   129    77    33    1
   130    78    34    1
   131    82    37    1
   132    85    38    1
   133    90    41    1
   134    92    42    1
   135    95    28    1
   136    97    36    1
   137    98    40    1
   138   102    46    1
   139   103    46    1
   140   107    43    1
   141   110    49    1
   142   111    50    1
   143   114    51    1
   144   115    52    1
   145   119    56    1
   146   121    58    1
   147   122    55    1
   148   124    57    1
   149   125    58    1
   150   129    62    1
   151   132    61    1
   152   134    63    1
   153   135    64    1
   154   139    23    2
   155   142    22    2
   156   144    19    2
   157   145    25    2
