@<TRIPOS>MOLECULE
RhRh_pFPhMe2-O2C4_20kcal_11_sp
 94 101 0 0 0
SMALL
GASTEIGER

@<TRIPOS>ATOM
      1 Rh          0.5185   -0.6128   -1.2198 Rh      1  UNL1        0.0000
      2 Rh          0.5025   -0.6660    1.1651 Rh      1  UNL1        0.0000
      3 C          -1.2785    1.3030    0.0054 C.3     1  UNL1        0.0000
      4 C           2.3743    1.2227    0.0392 C.3     1  UNL1        0.0000
      5 C           2.3906   -2.4815   -0.0613 C.3     1  UNL1        0.0000
      6 C          -1.4308   -2.4257   -0.0854 C.3     1  UNL1        0.0000
      7 O           1.9590    0.8505   -1.1058 O.3     1  UNL1        0.0000
      8 O           2.0313    0.7067    1.1496 O.3     1  UNL1        0.0000
      9 O          -0.9561    0.8277   -1.1295 O.3     1  UNL1        0.0000
     10 O          -0.8097    0.9044    1.1225 O.3     1  UNL1        0.0000
     11 O          -0.9138   -2.0802   -1.1980 O.3     1  UNL1        0.0000
     12 O          -1.0656   -1.9991    1.0556 O.3     1  UNL1        0.0000
     13 O           2.0012   -2.0280   -1.1834 O.3     1  UNL1        0.0000
     14 O           1.8774   -2.2014    1.0697 O.3     1  UNL1        0.0000
     15 F          -7.3609    0.4260    1.6814 F       1  UNL1        0.0000
     16 F          -7.3843   -0.5329   -1.1881 F       1  UNL1        0.0000
     17 F           7.9399    0.2889    0.5325 F       1  UNL1        0.0000
     18 F          -0.0149    6.9675   -0.7286 F       1  UNL1        0.0000
     19 C           3.3203    2.4321    0.0747 C.3     1  UNL1        0.0000
     20 C           2.4144    3.6655   -0.1227 C.ar    1  UNL1        0.0000
     21 C           2.2391    4.6251    0.8812 C.ar    1  UNL1        0.0000
     22 C           1.4232    5.7414    0.6871 C.ar    1  UNL1        0.0000
     23 C           0.7743    5.8914   -0.5291 C.ar    1  UNL1        0.0000
     24 C           0.9153    4.9573   -1.5486 C.ar    1  UNL1        0.0000
     25 C           1.7281    3.8477   -1.3344 C.ar    1  UNL1        0.0000
     26 C          -2.3035    2.4438    0.0538 C.3     1  UNL1        0.0000
     27 C          -3.6716    1.8655    0.4672 C.ar    1  UNL1        0.0000
     28 C          -3.7719    0.8647    1.4461 C.ar    1  UNL1        0.0000
     29 C          -5.0088    0.3841    1.8646 C.ar    1  UNL1        0.0000
     30 C          -6.1601    0.9161    1.3033 C.ar    1  UNL1        0.0000
     31 C          -6.1068    1.9106    0.3392 C.ar    1  UNL1        0.0000
     32 C          -4.8586    2.3750   -0.0748 C.ar    1  UNL1        0.0000
     33 C          -2.6038   -3.4135   -0.1403 C.3     1  UNL1        0.0000
     34 C          -3.8909   -2.5971   -0.3723 C.ar    1  UNL1        0.0000
     35 C          -3.9121   -1.5577   -1.3155 C.ar    1  UNL1        0.0000
     36 C          -5.0836   -0.8624   -1.5981 C.ar    1  UNL1        0.0000
     37 C          -6.2480   -1.2167   -0.9325 C.ar    1  UNL1        0.0000
     38 C          -6.2690   -2.2322    0.0110 C.ar    1  UNL1        0.0000
     39 C          -5.0843   -2.9150    0.2870 C.ar    1  UNL1        0.0000
     40 C           3.6384   -3.3761   -0.0713 C.3     1  UNL1        0.0000
     41 C           4.8141   -2.3875    0.0669 C.ar    1  UNL1        0.0000
     42 C           5.7498   -2.1912   -0.9548 C.ar    1  UNL1        0.0000
     43 C           6.8056   -1.2897   -0.8087 C.ar    1  UNL1        0.0000
     44 C           6.9193   -0.5800    0.3778 C.ar    1  UNL1        0.0000
     45 C           6.0050   -0.7405    1.4125 C.ar    1  UNL1        0.0000
     46 C           4.9515   -1.6344    1.2436 C.ar    1  UNL1        0.0000
     47 C          -2.4082   -4.3765   -1.3326 C.3     1  UNL1        0.0000
     48 C          -2.6359   -4.2191    1.1686 C.3     1  UNL1        0.0000
     49 C           3.6138   -4.3524    1.1209 C.3     1  UNL1        0.0000
     50 C           3.6841   -4.1806   -1.3785 C.3     1  UNL1        0.0000
     51 C           4.0780    2.4630    1.4082 C.3     1  UNL1        0.0000
     52 C           4.3425    2.3159   -1.0768 C.3     1  UNL1        0.0000
     53 C          -2.3453    3.1313   -1.3206 C.3     1  UNL1        0.0000
     54 C          -1.8442    3.4638    1.1235 C.3     1  UNL1        0.0000
     55 H           2.7410    4.5168    1.8340 H       1  UNL1        0.0000
     56 H           1.2885    6.4853    1.4641 H       1  UNL1        0.0000
     57 H           0.3920    5.1036   -2.4867 H       1  UNL1        0.0000
     58 H           1.8160    3.1032   -2.1158 H       1  UNL1        0.0000
     59 H          -2.8741    0.4453    1.8813 H       1  UNL1        0.0000
     60 H          -5.0865   -0.4092    2.5985 H       1  UNL1        0.0000
     61 H          -7.0255    2.2874   -0.0943 H       1  UNL1        0.0000
     62 H          -4.8255    3.1448   -0.8358 H       1  UNL1        0.0000
     63 H          -3.0010   -1.2793   -1.8308 H       1  UNL1        0.0000
     64 H          -5.0982   -0.0437   -2.3073 H       1  UNL1        0.0000
     65 H          -7.1918   -2.4602    0.5313 H       1  UNL1        0.0000
     66 H          -5.1064   -3.7032    1.0294 H       1  UNL1        0.0000
     67 H           5.6689   -2.7426   -1.8829 H       1  UNL1        0.0000
     68 H           7.5335   -1.1381   -1.5976 H       1  UNL1        0.0000
     69 H           6.1245   -0.1722    2.3278 H       1  UNL1        0.0000
     70 H           4.2181   -1.7357    2.0346 H       1  UNL1        0.0000
     71 H          -3.2590   -5.0613   -1.3830 H       1  UNL1        0.0000
     72 H          -2.3437   -3.8293   -2.2731 H       1  UNL1        0.0000
     73 H          -1.4929   -4.9649   -1.2118 H       1  UNL1        0.0000
     74 H          -1.6671   -4.6969    1.3348 H       1  UNL1        0.0000
     75 H          -2.8493   -3.5817    2.0278 H       1  UNL1        0.0000
     76 H          -3.3900   -5.0080    1.1117 H       1  UNL1        0.0000
     77 H           4.5349   -4.9417    1.1254 H       1  UNL1        0.0000
     78 H           3.5267   -3.8322    2.0739 H       1  UNL1        0.0000
     79 H           2.7646   -5.0367    1.0340 H       1  UNL1        0.0000
     80 H           3.6450   -3.5344   -2.2554 H       1  UNL1        0.0000
     81 H           4.5937   -4.7866   -1.4157 H       1  UNL1        0.0000
     82 H           2.8256   -4.8558   -1.4256 H       1  UNL1        0.0000
     83 H           4.7300    3.3401    1.4465 H       1  UNL1        0.0000
     84 H           3.4021    2.4791    2.2637 H       1  UNL1        0.0000
     85 H           4.7000    1.5711    1.4923 H       1  UNL1        0.0000
     86 H           4.9945    3.1935   -1.0734 H       1  UNL1        0.0000
     87 H           4.9602    1.4227   -0.9436 H       1  UNL1        0.0000
     88 H           3.8540    2.2458   -2.0481 H       1  UNL1        0.0000
     89 H          -2.9500    4.0401   -1.2729 H       1  UNL1        0.0000
     90 H          -1.3364    3.4203   -1.6171 H       1  UNL1        0.0000
     91 H          -2.7534    2.4714   -2.0882 H       1  UNL1        0.0000
     92 H          -2.5639    4.2858    1.1658 H       1  UNL1        0.0000
     93 H          -1.7876    2.9969    2.1071 H       1  UNL1        0.0000
     94 H          -0.8607    3.8726    0.8743 H       1  UNL1        0.0000
@<TRIPOS>BOND
     1     1    11    1
     2     1    13    1
     3     1     9    1
     4     1     7    1
     5     1     2    1
     6     3    26    1
     7     3    10    1
     8     4    19    1
     9     4     8    1
    10     5    14    1
    11     6    12    1
    12     7     4    1
    13     8     2    1
    14     9     3    1
    15    10     2    1
    16    11     6    1
    17    12     2    1
    18    13     5    1
    19    14     2    1
    20    16    37    1
    21    18    23    1
    22    19    51    1
    23    20    19    1
    24    20    21   ar
    25    21    55    1
    26    22    21   ar
    27    22    56    1
    28    23    22   ar
    29    24    25   ar
    30    24    23   ar
    31    25    20   ar
    32    26    27    1
    33    26    54    1
    34    27    28   ar
    35    28    29   ar
    36    28    59    1
    37    29    60    1
    38    30    15    1
    39    30    29   ar
    40    31    30   ar
    41    32    31   ar
    42    32    27   ar
    43    33     6    1
    44    33    48    1
    45    34    33    1
    46    34    39   ar
    47    35    34   ar
    48    36    35   ar
    49    36    37   ar
    50    37    38   ar
    51    38    39   ar
    52    38    65    1
    53    39    66    1
    54    40     5    1
    55    40    41    1
    56    40    49    1
    57    41    46   ar
    58    42    43   ar
    59    42    41   ar
    60    43    44   ar
    61    44    17    1
    62    44    45   ar
    63    45    69    1
    64    46    45   ar
    65    46    70    1
    66    47    73    1
    67    47    33    1
    68    48    74    1
    69    48    75    1
    70    49    77    1
    71    49    78    1
    72    50    40    1
    73    51    83    1
    74    51    85    1
    75    51    84    1
    76    52    86    1
    77    52    87    1
    78    52    19    1
    79    53    89    1
    80    53    26    1
    81    54    92    1
    82    54    93    1
    83    57    24    1
    84    58    25    1
    85    61    31    1
    86    62    32    1
    87    63    35    1
    88    64    36    1
    89    67    42    1
    90    68    43    1
    91    71    47    1
    92    72    47    1
    93    76    48    1
    94    79    49    1
    95    80    50    1
    96    81    50    1
    97    82    50    1
    98    88    52    1
    99    90    53    1
   100    91    53    1
   101    94    54    1
