@<TRIPOS>MOLECULE
RhRh_S-BPTTL4_8_sp
 158 173 0 0 0
SMALL
GASTEIGER

@<TRIPOS>ATOM
      1 Rh          0.0019   -0.0008   -0.7079 Rh      1  UNL1        0.0000
      2 Rh          0.0063   -0.0032   -3.1000 Rh      1  UNL1        0.0000
      3 C           0.9883    2.4289   -1.8955 C.3     1  UNL1        0.0000
      4 C          -0.9799   -2.4330   -1.8943 C.3     1  UNL1        0.0000
      5 C           2.4351   -0.9859   -1.8894 C.3     1  UNL1        0.0000
      6 C          -2.4270    0.9819   -1.9005 C.3     1  UNL1        0.0000
      7 O           1.9182   -0.6876   -0.7641 O.3     1  UNL1        0.0000
      8 O           1.9282   -0.7571   -3.0252 O.3     1  UNL1        0.0000
      9 O           0.6888    1.9153   -0.7690 O.3     1  UNL1        0.0000
     10 O           0.7605    1.9189   -3.0301 O.3     1  UNL1        0.0000
     11 O          -1.9144    0.6855   -0.7726 O.3     1  UNL1        0.0000
     12 O          -1.9159    0.7510   -3.0339 O.3     1  UNL1        0.0000
     13 O          -0.6847   -1.9170   -0.7676 O.3     1  UNL1        0.0000
     14 O          -0.7479   -1.9252   -3.0290 O.3     1  UNL1        0.0000
     15 N           3.5953   -2.6891   -0.6827 N.am    1  UNL1        0.0000
     16 N           2.6903    3.5922   -0.6901 N.am    1  UNL1        0.0000
     17 N          -3.5916    2.6873   -0.7012 N.am    1  UNL1        0.0000
     18 N          -2.6868   -3.5936   -0.6935 N.am    1  UNL1        0.0000
     19 C           4.1629   -2.4819    0.5892 C.2     1  UNL1        0.0000
     20 C           3.3178   -3.2270    1.5546 C.ar    1  UNL1        0.0000
     21 C           3.3715   -3.2831    2.9211 C.ar    1  UNL1        0.0000
     22 C           2.3262   -3.9646    3.6118 C.ar    1  UNL1        0.0000
     23 C           1.2543   -4.5739    2.8683 C.ar    1  UNL1        0.0000
     24 C           1.2457   -4.5037    1.4459 C.ar    1  UNL1        0.0000
     25 C           2.2648   -3.8338    0.8284 C.ar    1  UNL1        0.0000
     26 C           2.4210   -3.4761   -0.5971 C.2     1  UNL1        0.0000
     27 C           3.4772    2.4182   -0.6004 C.2     1  UNL1        0.0000
     28 C           3.8337    2.2662    0.8259 C.ar    1  UNL1        0.0000
     29 C           4.5034    1.2493    1.4469 C.ar    1  UNL1        0.0000
     30 C           4.5724    1.2620    2.8693 C.ar    1  UNL1        0.0000
     31 C           3.9621    2.3359    3.6092 C.ar    1  UNL1        0.0000
     32 C           3.2810    3.3790    2.9148 C.ar    1  UNL1        0.0000
     33 C           3.2260    3.3213    1.5484 C.ar    1  UNL1        0.0000
     34 C           2.4817    4.1635    0.5798 C.2     1  UNL1        0.0000
     35 C          -2.4178    3.4746   -0.6127 C.2     1  UNL1        0.0000
     36 C          -2.2675    3.8357    0.8126 C.ar    1  UNL1        0.0000
     37 C          -1.2514    4.5076    1.4328 C.ar    1  UNL1        0.0000
     38 C          -1.2661    4.5815    2.8549 C.ar    1  UNL1        0.0000
     39 C          -2.3411    3.9738    3.5954 C.ar    1  UNL1        0.0000
     40 C          -3.3832    3.2902    2.9019 C.ar    1  UNL1        0.0000
     41 C          -3.3235    3.2304    1.5358 C.ar    1  UNL1        0.0000
     42 C          -4.1644    2.4829    0.5687 C.2     1  UNL1        0.0000
     43 C          -3.4743   -2.4196   -0.6097 C.2     1  UNL1        0.0000
     44 C          -3.8375   -2.2651    0.8146 C.ar    1  UNL1        0.0000
     45 C          -4.5100   -1.2470    1.4307 C.ar    1  UNL1        0.0000
     46 C          -4.5857   -1.2572    2.8528 C.ar    1  UNL1        0.0000
     47 C          -3.9792   -2.3299    3.5974 C.ar    1  UNL1        0.0000
     48 C          -3.2949   -3.3743    2.9081 C.ar    1  UNL1        0.0000
     49 C          -3.2333   -3.3189    1.5419 C.ar    1  UNL1        0.0000
     50 C          -2.4842   -4.1626    0.5784 C.2     1  UNL1        0.0000
     51 C           3.7912   -1.6951   -1.7504 C.3     1  UNL1        0.0000
     52 C           4.5117   -2.2049   -3.0218 C.3     1  UNL1        0.0000
     53 C           3.6873   -3.2173   -3.8314 C.3     1  UNL1        0.0000
     54 C           4.8509   -0.9808   -3.8952 C.3     1  UNL1        0.0000
     55 C           5.8239   -2.8659   -2.5609 C.3     1  UNL1        0.0000
     56 C           1.6976    3.7853   -1.7596 C.3     1  UNL1        0.0000
     57 C           2.2092    4.5019   -3.0324 C.3     1  UNL1        0.0000
     58 C           3.2223    3.6747   -3.8382 C.3     1  UNL1        0.0000
     59 C           2.8701    5.8153   -2.5746 C.3     1  UNL1        0.0000
     60 C           0.9863    4.8388   -3.9084 C.3     1  UNL1        0.0000
     61 C          -3.7836    1.6914   -1.7679 C.3     1  UNL1        0.0000
     62 C          -4.4990    2.1991   -3.0429 C.3     1  UNL1        0.0000
     63 C          -3.6715    3.2105   -3.8506 C.3     1  UNL1        0.0000
     64 C          -4.8343    0.9737   -3.9159 C.3     1  UNL1        0.0000
     65 C          -5.8132    2.8606   -2.5884 C.3     1  UNL1        0.0000
     66 C          -1.6896   -3.7891   -1.7583 C.3     1  UNL1        0.0000
     67 C          -2.1956   -4.5088   -3.0317 C.3     1  UNL1        0.0000
     68 C          -3.2062   -3.6842   -3.8433 C.3     1  UNL1        0.0000
     69 C          -0.9689   -4.8465   -3.9020 C.3     1  UNL1        0.0000
     70 C          -2.8572   -5.8218   -2.5737 C.3     1  UNL1        0.0000
     71 C           5.2124    0.2115    3.5755 C.ar    1  UNL1        0.0000
     72 C           4.0312    2.3098    5.0248 C.ar    1  UNL1        0.0000
     73 C           4.6650    1.2779    5.6817 C.ar    1  UNL1        0.0000
     74 C           5.2576    0.2207    4.9526 C.ar    1  UNL1        0.0000
     75 C          -2.3171    4.0481    5.0108 C.ar    1  UNL1        0.0000
     76 C          -0.2166    5.2239    3.5603 C.ar    1  UNL1        0.0000
     77 C          -1.2862    4.6843    5.6669 C.ar    1  UNL1        0.0000
     78 C          -0.2278    5.2741    4.9372 C.ar    1  UNL1        0.0000
     79 C          -4.0552   -2.3015    5.0126 C.ar    1  UNL1        0.0000
     80 C          -5.2288   -0.2053    3.5541 C.ar    1  UNL1        0.0000
     81 C          -4.6920   -1.2683    5.6647 C.ar    1  UNL1        0.0000
     82 C          -5.2807   -0.2121    4.9310 C.ar    1  UNL1        0.0000
     83 C           0.2017   -5.2143    3.5709 C.ar    1  UNL1        0.0000
     84 C           2.2961   -4.0349    5.0273 C.ar    1  UNL1        0.0000
     85 C           1.2622   -4.6692    5.6806 C.ar    1  UNL1        0.0000
     86 C           0.2069   -5.2608    4.9479 C.ar    1  UNL1        0.0000
     87 H           4.1632   -2.7906    3.4765 H       1  UNL1        0.0000
     88 H           0.4247   -4.9388    0.8886 H       1  UNL1        0.0000
     89 H           4.9392    0.4267    0.8924 H       1  UNL1        0.0000
     90 H           2.7878    4.1723    3.4675 H       1  UNL1        0.0000
     91 H          -0.4281    4.9416    0.8779 H       1  UNL1        0.0000
     92 H          -4.1773    2.7990    3.4552 H       1  UNL1        0.0000
     93 H          -4.9432   -0.4253    0.8727 H       1  UNL1        0.0000
     94 H          -2.8045   -4.1666    3.4645 H       1  UNL1        0.0000
     95 H           4.4438   -0.9394   -1.3018 H       1  UNL1        0.0000
     96 H           4.2542   -3.5138   -4.7204 H       1  UNL1        0.0000
     97 H           2.7364   -2.7897   -4.1516 H       1  UNL1        0.0000
     98 H           3.4712   -4.1154   -3.2495 H       1  UNL1        0.0000
     99 H           5.4194   -0.2350   -3.3295 H       1  UNL1        0.0000
    100 H           3.9484   -0.4999   -4.2745 H       1  UNL1        0.0000
    101 H           5.4602   -1.2962   -4.7479 H       1  UNL1        0.0000
    102 H           6.4267   -2.1803   -1.9565 H       1  UNL1        0.0000
    103 H           6.4150   -3.1655   -3.4317 H       1  UNL1        0.0000
    104 H           5.6286   -3.7594   -1.9611 H       1  UNL1        0.0000
    105 H           0.9415    4.4394   -1.3138 H       1  UNL1        0.0000
    106 H           4.1197    3.4602   -3.2547 H       1  UNL1        0.0000
    107 H           3.5200    4.2387   -4.7287 H       1  UNL1        0.0000
    108 H           2.7948    2.7229   -4.1559 H       1  UNL1        0.0000
    109 H           3.7627    5.6214   -1.9730 H       1  UNL1        0.0000
    110 H           2.1838    6.4201   -1.9730 H       1  UNL1        0.0000
    111 H           3.1711    6.4035   -3.4468 H       1  UNL1        0.0000
    112 H           0.2399    5.4090   -3.3454 H       1  UNL1        0.0000
    113 H           0.5057    3.9353   -4.2858 H       1  UNL1        0.0000
    114 H           1.3030    5.4457   -4.7624 H       1  UNL1        0.0000
    115 H          -4.4380    0.9365   -1.3205 H       1  UNL1        0.0000
    116 H          -2.7192    2.7826   -4.1663 H       1  UNL1        0.0000
    117 H          -3.4579    4.1095   -3.2692 H       1  UNL1        0.0000
    118 H          -4.2348    3.5056   -4.7424 H       1  UNL1        0.0000
    119 H          -3.9301    0.4925   -4.2910 H       1  UNL1        0.0000
    120 H          -5.4404    1.2877   -4.7715 H       1  UNL1        0.0000
    121 H          -5.4048    0.2285   -3.3515 H       1  UNL1        0.0000
    122 H          -5.6205    3.7550   -1.9891 H       1  UNL1        0.0000
    123 H          -6.4184    2.1757   -1.9854 H       1  UNL1        0.0000
    124 H          -6.4007    3.1588   -3.4620 H       1  UNL1        0.0000
    125 H          -0.9354   -4.4422   -1.3077 H       1  UNL1        0.0000
    126 H          -4.1061   -3.4692   -3.2638 H       1  UNL1        0.0000
    127 H          -3.4998   -4.2504   -4.7337 H       1  UNL1        0.0000
    128 H          -2.7782   -2.7327   -4.1613 H       1  UNL1        0.0000
    129 H          -0.2243   -5.4150   -3.3348 H       1  UNL1        0.0000
    130 H          -0.4876   -3.9434   -4.2793 H       1  UNL1        0.0000
    131 H          -1.2816   -5.4554   -4.7561 H       1  UNL1        0.0000
    132 H          -3.7524   -5.6274   -1.9761 H       1  UNL1        0.0000
    133 H          -2.1729   -6.4248   -1.9680 H       1  UNL1        0.0000
    134 H          -3.1542   -6.4121   -3.4458 H       1  UNL1        0.0000
    135 H           4.7088    1.2723    6.7663 H       1  UNL1        0.0000
    136 H           5.7518   -0.5860    5.4854 H       1  UNL1        0.0000
    137 H          -1.2821    4.7321    6.7514 H       1  UNL1        0.0000
    138 H           0.5782    5.7701    5.4694 H       1  UNL1        0.0000
    139 H          -4.7411   -1.2608    6.7491 H       1  UNL1        0.0000
    140 H          -5.7771    0.5957    5.4601 H       1  UNL1        0.0000
    141 H           3.5690    3.1181    5.5842 H       1  UNL1        0.0000
    142 H          -3.1262    3.5881    5.5706 H       1  UNL1        0.0000
    143 H          -0.6072   -5.6494    2.9925 H       1  UNL1        0.0000
    144 H          -3.5960   -3.1089    5.5756 H       1  UNL1        0.0000
    145 O          -5.1410    1.7848    0.7849 O.2     1  UNL1        0.0000
    146 O          -1.6795    3.7288   -1.5451 O.2     1  UNL1        0.0000
    147 O          -3.7270   -1.6841   -1.5447 O.2     1  UNL1        0.0000
    148 O          -1.7863   -5.1384    0.7986 O.2     1  UNL1        0.0000
    149 O           5.1387   -1.7835    0.8078 O.2     1  UNL1        0.0000
    150 O           1.6865   -3.7324   -1.5319 O.2     1  UNL1        0.0000
    151 O           3.7344    1.6809   -1.5328 O.2     1  UNL1        0.0000
    152 O           1.7830    5.1398    0.7950 O.2     1  UNL1        0.0000
    153 H           3.1028   -3.5735    5.5893 H       1  UNL1        0.0000
    154 H           1.2534   -4.7140    6.7652 H       1  UNL1        0.0000
    155 H          -0.6015   -5.7552    5.4780 H       1  UNL1        0.0000
    156 H          -5.6616    0.6043    2.9750 H       1  UNL1        0.0000
    157 H           0.5947    5.6576    2.9843 H       1  UNL1        0.0000
    158 H           5.6482   -0.5989    2.9998 H       1  UNL1        0.0000
@<TRIPOS>BOND
     1     2    12    1
     2     2    10    1
     3     2    14    1
     4     2     8    1
     5     2     1    1
     6     3    56    1
     7     3     9    1
     8     4    66    1
     9     4    13    1
    10     5    51    1
    11     5     7    1
    12     6    61    1
    13     6    11    1
    14     7     1    1
    15     8     5    1
    16     9     1    1
    17    10     3    1
    18    11     1    1
    19    12     6    1
    20    13     1    1
    21    14     4    1
    22    15    26   am
    23    15    19   am
    24    16    27   am
    25    16    34   am
    26    17    35   am
    27    17    42   am
    28    18    43   am
    29    18    50   am
    30    19   149    2
    31    19    20    1
    32    20    21   ar
    33    21    87    1
    34    21    22   ar
    35    22    84   ar
    36    23    83   ar
    37    23    22   ar
    38    24    23   ar
    39    25    24   ar
    40    25    20   ar
    41    26    25    1
    42    27    28    1
    43    28    29   ar
    44    28    33   ar
    45    29    30   ar
    46    30    71   ar
    47    30    31   ar
    48    31    72   ar
    49    32    90    1
    50    32    31   ar
    51    33    32   ar
    52    34   152    2
    53    34    33    1
    54    35    36    1
    55    36    37   ar
    56    36    41   ar
    57    37    38   ar
    58    38    76   ar
    59    38    39   ar
    60    39    75   ar
    61    40    92    1
    62    40    39   ar
    63    41    40   ar
    64    42   145    2
    65    42    41    1
    66    43    44    1
    67    44    45   ar
    68    44    49   ar
    69    45    46   ar
    70    46    80   ar
    71    46    47   ar
    72    47    79   ar
    73    48    94    1
    74    48    47   ar
    75    49    48   ar
    76    50   148    2
    77    50    49    1
    78    51    95    1
    79    51    15    1
    80    52    55    1
    81    52    51    1
    82    53    98    1
    83    53    52    1
    84    54    99    1
    85    54    52    1
    86    55   104    1
    87    55   102    1
    88    56   105    1
    89    56    16    1
    90    57    59    1
    91    57    56    1
    92    58   106    1
    93    58    57    1
    94    59   109    1
    95    59   110    1
    96    60   112    1
    97    60    57    1
    98    61   115    1
    99    61    17    1
   100    62    65    1
   101    62    61    1
   102    63   117    1
   103    63    62    1
   104    64   121    1
   105    64    62    1
   106    65   122    1
   107    65   123    1
   108    66   125    1
   109    66    18    1
   110    67    70    1
   111    67    66    1
   112    68   126    1
   113    68    67    1
   114    69   129    1
   115    69    67    1
   116    70   132    1
   117    70   133    1
   118    71    74   ar
   119    72   141    1
   120    72    73   ar
   121    73   135    1
   122    74   136    1
   123    74    73   ar
   124    75   142    1
   125    75    77   ar
   126    76    78   ar
   127    77   137    1
   128    78   138    1
   129    78    77   ar
   130    79   144    1
   131    79    81   ar
   132    80    82   ar
   133    81   139    1
   134    82   140    1
   135    82    81   ar
   136    83    86   ar
   137    84   153    1
   138    84    85   ar
   139    85   154    1
   140    86   155    1
   141    86    85   ar
   142    88    24    1
   143    89    29    1
   144    91    37    1
   145    93    45    1
   146    96    53    1
   147    97    53    1
   148   100    54    1
   149   101    54    1
   150   103    55    1
   151   107    58    1
   152   108    58    1
   153   111    59    1
   154   113    60    1
   155   114    60    1
   156   116    63    1
   157   118    63    1
   158   119    64    1
   159   120    64    1
   160   124    65    1
   161   127    68    1
   162   128    68    1
   163   130    69    1
   164   131    69    1
   165   134    70    1
   166   143    83    1
   167   146    35    2
   168   147    43    2
   169   150    26    2
   170   151    27    2
   171   156    80    1
   172   157    76    1
   173   158    71    1
