@<TRIPOS>MOLECULE
RhRh_pFPhMe2-O2C4_20kcal_12_sp
 94 101 0 0 0
SMALL
GASTEIGER

@<TRIPOS>ATOM
      1 Rh         -0.2140   -0.5910    1.0311 Rh      1  UNL1        0.0000
      2 Rh         -0.4804   -0.2707   -1.3207 Rh      1  UNL1        0.0000
      3 C          -2.5307    0.9809    0.2876 C.3     1  UNL1        0.0000
      4 C          -1.8290   -2.6037   -0.2746 C.3     1  UNL1        0.0000
      5 C           1.8594   -1.8048   -0.5731 C.3     1  UNL1        0.0000
      6 C           1.1050    1.7674   -0.0204 C.3     1  UNL1        0.0000
      7 O          -1.3724   -2.2820    0.8696 O.3     1  UNL1        0.0000
      8 O          -1.5547   -2.0213   -1.3706 O.3     1  UNL1        0.0000
      9 O          -1.9185    0.5337    1.3107 O.3     1  UNL1        0.0000
     10 O          -2.2112    0.7545   -0.9223 O.3     1  UNL1        0.0000
     11 O           0.9319    1.1210    1.0605 O.3     1  UNL1        0.0000
     12 O           0.5829    1.4756   -1.1447 O.3     1  UNL1        0.0000
     13 O           1.4607   -1.6974    0.6300 O.3     1  UNL1        0.0000
     14 O           1.2858   -1.2975   -1.5898 O.3     1  UNL1        0.0000
     15 F          -1.5011    7.1472    0.1374 F       1  UNL1        0.0000
     16 F           7.0918    1.1273   -1.8810 F       1  UNL1        0.0000
     17 F           6.9829   -1.6812    3.1831 F       1  UNL1        0.0000
     18 F          -7.8688   -1.2277    0.5777 F       1  UNL1        0.0000
     19 C          -2.8545   -3.7448   -0.3269 C.3     1  UNL1        0.0000
     20 C          -4.2180   -3.0570   -0.1119 C.ar    1  UNL1        0.0000
     21 C          -5.2225   -3.0684   -1.0856 C.ar    1  UNL1        0.0000
     22 C          -6.4554   -2.4526   -0.8638 C.ar    1  UNL1        0.0000
     23 C          -6.6776   -1.8191    0.3498 C.ar    1  UNL1        0.0000
     24 C          -5.7011   -1.7763    1.3383 C.ar    1  UNL1        0.0000
     25 C          -4.4738   -2.3872    1.0955 C.ar    1  UNL1        0.0000
     26 C          -3.7129    1.9303    0.5204 C.3     1  UNL1        0.0000
     27 C          -3.1212    3.3452    0.3810 C.ar    1  UNL1        0.0000
     28 C          -2.0665    3.7354    1.2218 C.ar    1  UNL1        0.0000
     29 C          -1.5198    5.0140    1.1501 C.ar    1  UNL1        0.0000
     30 C          -2.0288    5.9073    0.2144 C.ar    1  UNL1        0.0000
     31 C          -3.0612    5.5545   -0.6415 C.ar    1  UNL1        0.0000
     32 C          -3.6006    4.2701   -0.5516 C.ar    1  UNL1        0.0000
     33 C           2.0593    2.9699    0.0126 C.3     1  UNL1        0.0000
     34 C           3.4282    2.4478   -0.4689 C.ar    1  UNL1        0.0000
     35 C           3.5370    1.8152   -1.7185 C.ar    1  UNL1        0.0000
     36 C           4.7651    1.3709   -2.2016 C.ar    1  UNL1        0.0000
     37 C           5.8998    1.5574   -1.4215 C.ar    1  UNL1        0.0000
     38 C           5.8338    2.1762   -0.1821 C.ar    1  UNL1        0.0000
     39 C           4.5942    2.6133    0.2882 C.ar    1  UNL1        0.0000
     40 C           3.0918   -2.6865   -0.8136 C.3     1  UNL1        0.0000
     41 C           4.1161   -2.4474    0.2972 C.ar    1  UNL1        0.0000
     42 C           4.4837   -1.1319    0.6175 C.ar    1  UNL1        0.0000
     43 C           5.4428   -0.8649    1.5881 C.ar    1  UNL1        0.0000
     44 C           6.0485   -1.9327    2.2399 C.ar    1  UNL1        0.0000
     45 C           5.7173   -3.2467    1.9481 C.ar    1  UNL1        0.0000
     46 C           4.7468   -3.4938    0.9747 C.ar    1  UNL1        0.0000
     47 C           1.5534    4.0609   -0.9564 C.3     1  UNL1        0.0000
     48 C           2.1077    3.5383    1.4377 C.3     1  UNL1        0.0000
     49 C           2.5421   -4.1310   -0.8323 C.3     1  UNL1        0.0000
     50 C           3.7304   -2.3652   -2.1785 C.3     1  UNL1        0.0000
     51 C          -2.7517   -4.4611   -1.6812 C.3     1  UNL1        0.0000
     52 C          -2.5876   -4.7598    0.8025 C.3     1  UNL1        0.0000
     53 C          -4.2907    1.7466    1.9365 C.3     1  UNL1        0.0000
     54 C          -4.8039    1.6223   -0.5178 C.3     1  UNL1        0.0000
     55 H          -5.0577   -3.5625   -2.0347 H       1  UNL1        0.0000
     56 H          -7.2363   -2.4628   -1.6156 H       1  UNL1        0.0000
     57 H          -5.9089   -1.2736    2.2758 H       1  UNL1        0.0000
     58 H          -3.6995   -2.3298    1.8515 H       1  UNL1        0.0000
     59 H          -1.6587    3.0268    1.9349 H       1  UNL1        0.0000
     60 H          -0.7134    5.3259    1.8038 H       1  UNL1        0.0000
     61 H          -3.4313    6.2748   -1.3621 H       1  UNL1        0.0000
     62 H          -4.4057    3.9995   -1.2232 H       1  UNL1        0.0000
     63 H           2.6470    1.6550   -2.3148 H       1  UNL1        0.0000
     64 H           4.8509    0.8851   -3.1669 H       1  UNL1        0.0000
     65 H           6.7383    2.3060    0.4013 H       1  UNL1        0.0000
     66 H           4.5525    3.0908    1.2590 H       1  UNL1        0.0000
     67 H           4.0083   -0.2970    0.1144 H       1  UNL1        0.0000
     68 H           5.7212    0.1513    1.8377 H       1  UNL1        0.0000
     69 H           6.2083   -4.0556    2.4773 H       1  UNL1        0.0000
     70 H           4.4872   -4.5228    0.7567 H       1  UNL1        0.0000
     71 H           2.2510    4.9029   -0.9461 H       1  UNL1        0.0000
     72 H           1.4760    3.6841   -1.9760 H       1  UNL1        0.0000
     73 H           0.5673    4.4188   -0.6488 H       1  UNL1        0.0000
     74 H           1.1035    3.8346    1.7461 H       1  UNL1        0.0000
     75 H           2.4739    2.8041    2.1564 H       1  UNL1        0.0000
     76 H           2.7462    4.4253    1.4695 H       1  UNL1        0.0000
     77 H           3.3328   -4.8384   -1.0963 H       1  UNL1        0.0000
     78 H           2.1262   -4.4078    0.1393 H       1  UNL1        0.0000
     79 H           1.7553   -4.2146   -1.5874 H       1  UNL1        0.0000
     80 H           4.0686   -1.3281   -2.2160 H       1  UNL1        0.0000
     81 H           4.5979   -3.0135   -2.3297 H       1  UNL1        0.0000
     82 H           3.0178   -2.5250   -2.9904 H       1  UNL1        0.0000
     83 H          -3.4949   -5.2611   -1.7417 H       1  UNL1        0.0000
     84 H          -2.8919   -3.7744   -2.5162 H       1  UNL1        0.0000
     85 H          -1.7613   -4.9124   -1.7845 H       1  UNL1        0.0000
     86 H          -3.3524   -5.5407    0.7754 H       1  UNL1        0.0000
     87 H          -1.6077   -5.2280    0.6698 H       1  UNL1        0.0000
     88 H          -2.6031   -4.2892    1.7848 H       1  UNL1        0.0000
     89 H          -5.1126    2.4526    2.0836 H       1  UNL1        0.0000
     90 H          -4.6750    0.7318    2.0590 H       1  UNL1        0.0000
     91 H          -3.5397    1.9208    2.7069 H       1  UNL1        0.0000
     92 H          -5.6644    2.2804   -0.3685 H       1  UNL1        0.0000
     93 H          -4.4335    1.7384   -1.5368 H       1  UNL1        0.0000
     94 H          -5.1442    0.5909   -0.3979 H       1  UNL1        0.0000
@<TRIPOS>BOND
     1     1    11    1
     2     1     9    1
     3     2    12    1
     4     2    10    1
     5     2     1    1
     6     3    26    1
     7     3     9    1
     8     4     7    1
     9     5    13    1
    10     6    33    1
    11     6    11    1
    12     7     1    1
    13     8     2    1
    14     8     4    1
    15    10     3    1
    16    12     6    1
    17    13     1    1
    18    14     2    1
    19    14     5    1
    20    15    30    1
    21    16    37    1
    22    19     4    1
    23    19    20    1
    24    19    52    1
    25    20    25   ar
    26    21    22   ar
    27    21    20   ar
    28    22    23   ar
    29    23    18    1
    30    23    24   ar
    31    24    57    1
    32    25    24   ar
    33    25    58    1
    34    26    53    1
    35    27    26    1
    36    27    28   ar
    37    28    59    1
    38    29    28   ar
    39    29    60    1
    40    30    29   ar
    41    31    32   ar
    42    31    30   ar
    43    32    27   ar
    44    33    48    1
    45    34    33    1
    46    34    39   ar
    47    35    34   ar
    48    36    35   ar
    49    36    37   ar
    50    37    38   ar
    51    38    39   ar
    52    38    65    1
    53    39    66    1
    54    40     5    1
    55    40    41    1
    56    41    42   ar
    57    41    46   ar
    58    42    43   ar
    59    43    68    1
    60    43    44   ar
    61    44    17    1
    62    45    44   ar
    63    45    69    1
    64    46    45   ar
    65    47    71    1
    66    47    73    1
    67    47    33    1
    68    48    76    1
    69    48    74    1
    70    48    75    1
    71    49    40    1
    72    49    78    1
    73    50    40    1
    74    51    19    1
    75    52    88    1
    76    53    90    1
    77    53    89    1
    78    53    91    1
    79    54    94    1
    80    54    92    1
    81    54    26    1
    82    55    21    1
    83    56    22    1
    84    61    31    1
    85    62    32    1
    86    63    35    1
    87    64    36    1
    88    67    42    1
    89    70    46    1
    90    72    47    1
    91    77    49    1
    92    79    49    1
    93    80    50    1
    94    81    50    1
    95    82    50    1
    96    83    51    1
    97    84    51    1
    98    85    51    1
    99    86    52    1
   100    87    52    1
   101    93    54    1
