@<TRIPOS>MOLECULE
RhRh_SS-diOBn-phthal-cat27_tBuCN_14_ONIOM_sp
 230 245 0 0 0
SMALL
GASTEIGER

@<TRIPOS>ATOM
      1 C          -1.7708   -0.1036   -2.9223 C.3     1  UNL1        0.0000
      2 C          -0.7514   -3.4508   -1.9105 C.3     1  UNL1        0.0000
      3 C           2.9261   -2.1032   -1.7562 C.3     1  UNL1        0.0000
      4 C           1.6525    1.1210   -2.7968 C.3     1  UNL1        0.0000
      5 O          -0.5686   -2.6848   -0.9070 O.3     1  UNL1        0.0000
      6 O          -0.2672   -3.3201   -3.0724 O.3     1  UNL1        0.0000
      7 O           2.2189   -1.6738   -0.7826 O.3     1  UNL1        0.0000
      8 O           2.5579   -2.2556   -2.9588 O.3     1  UNL1        0.0000
      9 O           1.2765    0.9365   -1.5879 O.3     1  UNL1        0.0000
     10 O           1.5527    0.3126   -3.7644 O.3     1  UNL1        0.0000
     11 O          -1.4165   -0.0341   -1.6949 O.3     1  UNL1        0.0000
     12 O          -1.1613   -0.6822   -3.8677 O.3     1  UNL1        0.0000
     13 N          -2.8020   -4.1457   -0.7730 N.am    1  UNL1        0.0000
     14 N           4.3795   -2.9025    0.0338 N.am    1  UNL1        0.0000
     15 N           3.1239    2.8599   -1.9165 N.am    1  UNL1        0.0000
     16 N          -3.0216    1.9496   -2.5243 N.am    1  UNL1        0.0000
     17 C          -3.5452   -3.0157   -1.1176 C.2     1  UNL1        0.0000
     18 C          -3.0466   -4.5786    0.5339 C.2     1  UNL1        0.0000
     19 C           3.5186   -3.9363    0.4364 C.2     1  UNL1        0.0000
     20 C           4.8774   -2.1716    1.1144 C.2     1  UNL1        0.0000
     21 C           2.9026    3.9665   -1.1004 C.2     1  UNL1        0.0000
     22 C           4.0864    1.9877   -1.4053 C.2     1  UNL1        0.0000
     23 C          -1.9484    2.8281   -2.6845 C.2     1  UNL1        0.0000
     24 C          -3.7957    2.2711   -1.4018 C.2     1  UNL1        0.0000
     25 C          -1.6469   -4.6602   -1.5308 C.3     1  UNL1        0.0000
     26 C          -2.0486   -5.6567   -2.6574 C.3     1  UNL1        0.0000
     27 C          -0.7883   -6.3199   -3.2631 C.3     1  UNL1        0.0000
     28 C          -2.9191   -6.7843   -2.0539 C.3     1  UNL1        0.0000
     29 C          -2.8571   -4.9766   -3.7852 C.3     1  UNL1        0.0000
     30 C           4.3932   -2.3207   -1.3170 C.3     1  UNL1        0.0000
     31 C           5.3661   -3.0344   -2.2970 C.3     1  UNL1        0.0000
     32 C           6.7611   -3.1417   -1.6377 C.3     1  UNL1        0.0000
     33 C           5.5309   -2.2053   -3.5944 C.3     1  UNL1        0.0000
     34 C           4.8883   -4.4559   -2.6615 C.3     1  UNL1        0.0000
     35 C           2.2159    2.5428   -3.0270 C.3     1  UNL1        0.0000
     36 C           2.8264    2.8758   -4.4230 C.3     1  UNL1        0.0000
     37 C           3.3299    4.3391   -4.4230 C.3     1  UNL1        0.0000
     38 C           4.0187    1.9588   -4.7788 C.3     1  UNL1        0.0000
     39 C           1.7499    2.7639   -5.5305 C.3     1  UNL1        0.0000
     40 C          -3.1229    0.6131   -3.1337 C.3     1  UNL1        0.0000
     41 C          -3.7390    0.6361   -4.5615 C.3     1  UNL1        0.0000
     42 C          -2.8381    1.3651   -5.5832 C.3     1  UNL1        0.0000
     43 C          -4.0056   -0.8054   -5.0564 C.3     1  UNL1        0.0000
     44 C          -5.1015    1.3662   -4.5108 C.3     1  UNL1        0.0000
     45 C           4.7723    2.6689   -0.2122 C.3     1  UNL1        0.0000
     46 C           3.9509    3.9559    0.0282 C.3     1  UNL1        0.0000
     47 C           4.5620   -2.9521    2.4016 C.3     1  UNL1        0.0000
     48 C           3.4635   -3.9364    1.9691 C.3     1  UNL1        0.0000
     49 C          -4.1952   -3.7384    1.1160 C.3     1  UNL1        0.0000
     50 C          -4.5260   -2.6994    0.0213 C.3     1  UNL1        0.0000
     51 C          -2.1443    4.0176   -1.7339 C.3     1  UNL1        0.0000
     52 C          -3.4573    3.7154   -0.9941 C.3     1  UNL1        0.0000
     53 C          -4.4613    4.1496    1.0636 C.3     1  UNL1        0.0000
     54 C          -1.3429    6.1902   -2.1721 C.3     1  UNL1        0.0000
     55 C          -4.1216   -3.7021    3.4659 C.3     1  UNL1        0.0000
     56 C          -6.8235   -2.3040    0.2756 C.3     1  UNL1        0.0000
     57 C           5.0459   -1.5597    4.2228 C.3     1  UNL1        0.0000
     58 C           3.2081   -5.4401    3.7377 C.3     1  UNL1        0.0000
     59 C           3.0190    5.1410    1.8161 C.3     1  UNL1        0.0000
     60 C           6.9885    3.1443    0.3911 C.3     1  UNL1        0.0000
     61 C          -4.3020    3.8429    2.5234 C.ar    1  UNL1        0.0000
     62 C          -4.3222    4.8721    3.4797 C.ar    1  UNL1        0.0000
     63 C          -4.1174    2.5146    2.9429 C.ar    1  UNL1        0.0000
     64 C          -4.1543    4.5746    4.8354 C.ar    1  UNL1        0.0000
     65 C          -3.9508    2.2227    4.3000 C.ar    1  UNL1        0.0000
     66 C          -3.9663    3.2516    5.2449 C.ar    1  UNL1        0.0000
     67 C          -1.7036    6.8327   -0.8553 C.ar    1  UNL1        0.0000
     68 C          -0.7399    6.9722    0.1561 C.ar    1  UNL1        0.0000
     69 C          -3.0094    7.3001   -0.6295 C.ar    1  UNL1        0.0000
     70 C          -1.0844    7.5474    1.3834 C.ar    1  UNL1        0.0000
     71 C          -3.3522    7.8661    0.6024 C.ar    1  UNL1        0.0000
     72 C          -2.3916    7.9847    1.6101 C.ar    1  UNL1        0.0000
     73 C           7.5066    1.8510    0.9619 C.ar    1  UNL1        0.0000
     74 C           8.0955    0.8915    0.1212 C.ar    1  UNL1        0.0000
     75 C           7.4470    1.6111    2.3445 C.ar    1  UNL1        0.0000
     76 C           8.6091   -0.2938    0.6570 C.ar    1  UNL1        0.0000
     77 C           7.9713    0.4299    2.8770 C.ar    1  UNL1        0.0000
     78 C           8.5465   -0.5247    2.0339 C.ar    1  UNL1        0.0000
     79 C           1.8533    5.0376    2.7564 C.ar    1  UNL1        0.0000
     80 C           0.5895    4.6769    2.2627 C.ar    1  UNL1        0.0000
     81 C           2.0002    5.3335    4.1221 C.ar    1  UNL1        0.0000
     82 C          -0.5176    4.6505    3.1146 C.ar    1  UNL1        0.0000
     83 C           0.8944    5.2779    4.9764 C.ar    1  UNL1        0.0000
     84 C          -0.3650    4.9437    4.4718 C.ar    1  UNL1        0.0000
     85 C           1.7104   -5.5560    3.8420 C.ar    1  UNL1        0.0000
     86 C           0.9769   -4.6454    4.6208 C.ar    1  UNL1        0.0000
     87 C           1.0364   -6.5883    3.1700 C.ar    1  UNL1        0.0000
     88 C          -0.4117   -4.7684    4.7255 C.ar    1  UNL1        0.0000
     89 C          -0.3513   -6.7122    3.2831 C.ar    1  UNL1        0.0000
     90 C          -1.0738   -5.8059    4.0636 C.ar    1  UNL1        0.0000
     91 C           4.5597   -0.2494    4.7713 C.ar    1  UNL1        0.0000
     92 C           4.2288   -0.1159    6.1301 C.ar    1  UNL1        0.0000
     93 C           4.4021    0.8517    3.9135 C.ar    1  UNL1        0.0000
     94 C           3.7413    1.1007    6.6189 C.ar    1  UNL1        0.0000
     95 C           3.9221    2.0673    4.4080 C.ar    1  UNL1        0.0000
     96 C           3.5873    2.1912    5.7584 C.ar    1  UNL1        0.0000
     97 C          -7.0470   -0.8364    0.0299 C.ar    1  UNL1        0.0000
     98 C          -7.4252   -0.3832   -1.2447 C.ar    1  UNL1        0.0000
     99 C          -6.9487    0.0843    1.0867 C.ar    1  UNL1        0.0000
    100 C          -7.7152    0.9692   -1.4535 C.ar    1  UNL1        0.0000
    101 C          -7.2476    1.4332    0.8761 C.ar    1  UNL1        0.0000
    102 C          -7.6320    1.8758   -0.3928 C.ar    1  UNL1        0.0000
    103 C          -5.4195   -3.1302    3.9625 C.ar    1  UNL1        0.0000
    104 C          -5.4883   -1.7799    4.3423 C.ar    1  UNL1        0.0000
    105 C          -6.5753   -3.9252    4.0300 C.ar    1  UNL1        0.0000
    106 C          -6.6966   -1.2322    4.7825 C.ar    1  UNL1        0.0000
    107 C          -7.7837   -3.3723    4.4662 C.ar    1  UNL1        0.0000
    108 C          -7.8445   -2.0271    4.8414 C.ar    1  UNL1        0.0000
    109 H          -1.0703   -5.2106   -0.7762 H       1  UNL1        0.0000
    110 H          -1.0714   -7.1418   -3.9560 H       1  UNL1        0.0000
    111 H          -0.1482   -6.7510   -2.4632 H       1  UNL1        0.0000
    112 H          -0.1814   -5.6033   -3.8506 H       1  UNL1        0.0000
    113 H          -3.8720   -6.3824   -1.6479 H       1  UNL1        0.0000
    114 H          -2.3782   -7.3012   -1.2318 H       1  UNL1        0.0000
    115 H          -3.1788   -7.5408   -2.8261 H       1  UNL1        0.0000
    116 H          -3.8374   -4.6161   -3.4104 H       1  UNL1        0.0000
    117 H          -3.0641   -5.7007   -4.6026 H       1  UNL1        0.0000
    118 H          -2.3106   -4.1199   -4.2278 H       1  UNL1        0.0000
    119 H           4.7591   -1.2961   -1.1614 H       1  UNL1        0.0000
    120 H           7.1388   -2.1346   -1.3583 H       1  UNL1        0.0000
    121 H           7.4937   -3.6064   -2.3328 H       1  UNL1        0.0000
    122 H           6.7260   -3.7685   -0.7210 H       1  UNL1        0.0000
    123 H           5.7939   -1.1514   -3.3589 H       1  UNL1        0.0000
    124 H           4.6116   -2.2088   -4.2123 H       1  UNL1        0.0000
    125 H           6.3416   -2.6257   -4.2282 H       1  UNL1        0.0000
    126 H           3.8587   -4.4465   -3.0737 H       1  UNL1        0.0000
    127 H           4.9129   -5.1226   -1.7750 H       1  UNL1        0.0000
    128 H           5.5565   -4.9040   -3.4285 H       1  UNL1        0.0000
    129 H           1.3487    3.1963   -2.8719 H       1  UNL1        0.0000
    130 H           4.1578    4.4799   -3.6956 H       1  UNL1        0.0000
    131 H           2.5068    5.0375   -4.1573 H       1  UNL1        0.0000
    132 H           3.7166    4.6256   -5.4251 H       1  UNL1        0.0000
    133 H           4.8675    2.1210   -4.0830 H       1  UNL1        0.0000
    134 H           4.3868    2.1838   -5.8032 H       1  UNL1        0.0000
    135 H           3.7400    0.8864   -4.7528 H       1  UNL1        0.0000
    136 H           1.4188    1.7200   -5.6937 H       1  UNL1        0.0000
    137 H           2.1493    3.1258   -6.5027 H       1  UNL1        0.0000
    138 H           0.8613    3.3813   -5.2787 H       1  UNL1        0.0000
    139 H          -3.8074    0.0670   -2.4743 H       1  UNL1        0.0000
    140 H          -2.7476    2.4430   -5.3364 H       1  UNL1        0.0000
    141 H          -3.2775    1.2992   -6.6021 H       1  UNL1        0.0000
    142 H          -1.8225    0.9239   -5.6283 H       1  UNL1        0.0000
    143 H          -4.6413   -1.3581   -4.3319 H       1  UNL1        0.0000
    144 H          -3.0672   -1.3747   -5.2065 H       1  UNL1        0.0000
    145 H          -4.5373   -0.7923   -6.0326 H       1  UNL1        0.0000
    146 H          -4.9778    2.4276   -4.2065 H       1  UNL1        0.0000
    147 H          -5.7829    0.8726   -3.7851 H       1  UNL1        0.0000
    148 H          -5.5931    1.3574   -5.5079 H       1  UNL1        0.0000
    149 H           4.6904    1.9994    0.6532 H       1  UNL1        0.0000
    150 H           4.6180    4.8192   -0.1078 H       1  UNL1        0.0000
    151 H           5.4480   -3.5419    2.6835 H       1  UNL1        0.0000
    152 H           2.4949   -3.4732    2.2180 H       1  UNL1        0.0000
    153 H          -5.0666   -4.3968    1.2417 H       1  UNL1        0.0000
    154 H          -4.2860   -1.6933    0.3932 H       1  UNL1        0.0000
    155 H          -1.3229    3.9894   -1.0052 H       1  UNL1        0.0000
    156 H          -4.2189    4.3780   -1.4324 H       1  UNL1        0.0000
    157 H          -4.7075    5.2237    0.9142 H       1  UNL1        0.0000
    158 H          -5.3133    3.5490    0.6757 H       1  UNL1        0.0000
    159 H          -0.3062    5.7848   -2.1724 H       1  UNL1        0.0000
    160 H          -1.3720    6.9772   -2.9543 H       1  UNL1        0.0000
    161 H          -4.1785   -4.8097    3.3498 H       1  UNL1        0.0000
    162 H          -3.3409   -3.5140    4.2321 H       1  UNL1        0.0000
    163 H          -7.7681   -2.8377    0.0405 H       1  UNL1        0.0000
    164 H          -6.6240   -2.5080    1.3519 H       1  UNL1        0.0000
    165 H           5.2761   -2.2688    5.0477 H       1  UNL1        0.0000
    166 H           5.9907   -1.3762    3.6644 H       1  UNL1        0.0000
    167 H           3.6537   -6.3830    4.1184 H       1  UNL1        0.0000
    168 H           3.6057   -4.6302    4.3916 H       1  UNL1        0.0000
    169 H           3.9186    5.5248    2.3455 H       1  UNL1        0.0000
    170 H           2.7487    5.8805    1.0269 H       1  UNL1        0.0000
    171 H           7.8552    3.7105   -0.0095 H       1  UNL1        0.0000
    172 H           6.5347    3.7902    1.1787 H       1  UNL1        0.0000
    173 H          -4.4567    5.9032    3.1772 H       1  UNL1        0.0000
    174 H          -4.0987    1.7087    2.2190 H       1  UNL1        0.0000
    175 H          -4.1635    5.3708    5.5684 H       1  UNL1        0.0000
    176 H          -3.8057    1.2001    4.6203 H       1  UNL1        0.0000
    177 H          -3.8322    3.0239    6.2944 H       1  UNL1        0.0000
    178 H           0.2771    6.6389   -0.0046 H       1  UNL1        0.0000
    179 H          -3.7647    7.2092   -1.4003 H       1  UNL1        0.0000
    180 H          -0.3384    7.6483    2.1613 H       1  UNL1        0.0000
    181 H          -4.3637    8.2089    0.7771 H       1  UNL1        0.0000
    182 H          -2.6589    8.4198    2.5643 H       1  UNL1        0.0000
    183 H           8.1571    1.0624   -0.9465 H       1  UNL1        0.0000
    184 H           7.0046    2.3404    3.0116 H       1  UNL1        0.0000
    185 H           9.0592   -1.0316    0.0056 H       1  UNL1        0.0000
    186 H           7.9279    0.2533    3.9439 H       1  UNL1        0.0000
    187 H           8.9445   -1.4422    2.4476 H       1  UNL1        0.0000
    188 H           0.4589    4.4327    1.2158 H       1  UNL1        0.0000
    189 H           2.9667    5.6080    4.5257 H       1  UNL1        0.0000
    190 H          -1.4907    4.3927    2.7221 H       1  UNL1        0.0000
    191 H           1.0125    5.5028    6.0284 H       1  UNL1        0.0000
    192 H          -1.2207    4.9099    5.1327 H       1  UNL1        0.0000
    193 H           1.4789   -3.8447    5.1496 H       1  UNL1        0.0000
    194 H           1.5867   -7.2986    2.5654 H       1  UNL1        0.0000
    195 H          -0.9729   -4.0646    5.3265 H       1  UNL1        0.0000
    196 H          -0.8665   -7.5127    2.7681 H       1  UNL1        0.0000
    197 H          -2.1455   -5.9118    4.1582 H       1  UNL1        0.0000
    198 H           4.3349   -0.9539    6.8077 H       1  UNL1        0.0000
    199 H           4.6411    0.7648    2.8620 H       1  UNL1        0.0000
    200 H           3.4809    1.1975    7.6650 H       1  UNL1        0.0000
    201 H           3.8079    2.9119    3.7444 H       1  UNL1        0.0000
    202 H           3.2097    3.1319    6.1379 H       1  UNL1        0.0000
    203 H          -7.5088   -1.0789   -2.0706 H       1  UNL1        0.0000
    204 H          -6.6572   -0.2420    2.0755 H       1  UNL1        0.0000
    205 H          -8.0101    1.3136   -2.4362 H       1  UNL1        0.0000
    206 H          -7.1804    2.1352    1.6972 H       1  UNL1        0.0000
    207 H          -7.8578    2.9216   -0.5554 H       1  UNL1        0.0000
    208 H          -4.6080   -1.1529    4.2915 H       1  UNL1        0.0000
    209 H          -6.5450   -4.9666    3.7347 H       1  UNL1        0.0000
    210 H          -6.7443   -0.1896    5.0697 H       1  UNL1        0.0000
    211 H          -8.6738   -3.9863    4.5110 H       1  UNL1        0.0000
    212 H          -8.7809   -1.6007    5.1771 H       1  UNL1        0.0000
    213 O           5.4498   -1.1059    1.0320 O.2     1  UNL1        0.0000
    214 O           2.8815   -4.6446   -0.3062 O.2     1  UNL1        0.0000
    215 O           4.3319    0.8902   -1.8545 O.2     1  UNL1        0.0000
    216 O           2.0132    4.7771   -1.2568 O.2     1  UNL1        0.0000
    217 O          -2.4353   -5.4576    1.0988 O.2     1  UNL1        0.0000
    218 O          -3.4191   -2.3909   -2.1473 O.2     1  UNL1        0.0000
    219 O          -1.0090    2.6574   -3.4323 O.2     1  UNL1        0.0000
    220 O          -4.5854    1.5221   -0.8720 O.2     1  UNL1        0.0000
    221 O           4.0463   -2.1115    3.4277 O.3     1  UNL1        0.0000
    222 O           3.6066   -5.2780    2.4114 O.3     1  UNL1        0.0000
    223 O          -2.2624    5.2053   -2.5217 O.3     1  UNL1        0.0000
    224 O          -3.7485   -3.0579    2.2894 O.3     1  UNL1        0.0000
    225 O          -5.8257   -2.8102   -0.5581 O.3     1  UNL1        0.0000
    226 O          -3.2692    3.8600    0.4067 O.3     1  UNL1        0.0000
    227 O           3.3083    3.8802    1.2993 O.3     1  UNL1        0.0000
    228 O           6.1068    2.9106   -0.6627 O.3     1  UNL1        0.0000
    229 Rh          0.3679   -0.8616   -1.1234 Rh      1  UNL1        0.0000
    230 Rh          0.6917   -1.5399   -3.5203 Rh      1  UNL1        0.0000
@<TRIPOS>BOND
     1     1    40    1
     2     1    11    1
     3     2    25    1
     4     2     5    1
     5     3    30    1
     6     3     7    1
     7     4    35    1
     8     4     9    1
     9     6     2    1
    10     8     3    1
    11     9   229    1
    12    10   230    1
    13    10     4    1
    14    11   229    1
    15    12   230    1
    16    12     1    1
    17    13    18   am
    18    14    19   am
    19    14    20   am
    20    15    22   am
    21    15    21   am
    22    16    24   am
    23    17    13   am
    24    17    50    1
    25    18   217    2
    26    18    49    1
    27    19    48    1
    28    20    47    1
    29    21    46    1
    30    22    45    1
    31    23    16   am
    32    23    51    1
    33    24    52    1
    34    24   220    2
    35    25   109    1
    36    25    13    1
    37    26    28    1
    38    26    25    1
    39    27    26    1
    40    27   111    1
    41    28   113    1
    42    28   114    1
    43    29   116    1
    44    29    26    1
    45    30   119    1
    46    30    14    1
    47    31    32    1
    48    31    30    1
    49    32   120    1
    50    32   122    1
    51    33   123    1
    52    33    31    1
    53    34    31    1
    54    34   127    1
    55    35   129    1
    56    35    15    1
    57    36    37    1
    58    36    35    1
    59    37   131    1
    60    37   130    1
    61    38   135    1
    62    38    36    1
    63    38   133    1
    64    39   138    1
    65    39    36    1
    66    40    16    1
    67    40   139    1
    68    41    44    1
    69    41    40    1
    70    42   140    1
    71    42    41    1
    72    43    41    1
    73    43   143    1
    74    44   146    1
    75    44   147    1
    76    45    46    1
    77    45   149    1
    78    46   150    1
    79    46   227    1
    80    47   151    1
    81    47   221    1
    82    48   152    1
    83    48    47    1
    84    48   222    1
    85    49   153    1
    86    49   224    1
    87    50   154    1
    88    50    49    1
    89    51   155    1
    90    51    52    1
    91    52   156    1
    92    52   226    1
    93    53    61    1
    94    54    67    1
    95    55   103    1
    96    55   162    1
    97    56   164    1
    98    57    91    1
    99    57   165    1
   100    58    85    1
   101    58   167    1
   102    58   168    1
   103    59   169    1
   104    59    79    1
   105    60    73    1
   106    60   172    1
   107    61    63   ar
   108    61    62   ar
   109    62    64   ar
   110    63    65   ar
   111    64    66   ar
   112    64   175    1
   113    65   176    1
   114    65    66   ar
   115    66   177    1
   116    67    69   ar
   117    67    68   ar
   118    68    70   ar
   119    69    71   ar
   120    70    72   ar
   121    70   180    1
   122    71   181    1
   123    71    72   ar
   124    72   182    1
   125    73    75   ar
   126    74    76   ar
   127    74    73   ar
   128    75    77   ar
   129    75   184    1
   130    76    78   ar
   131    77   186    1
   132    78   187    1
   133    78    77   ar
   134    79    81   ar
   135    80    79   ar
   136    80    82   ar
   137    81   189    1
   138    81    83   ar
   139    82    84   ar
   140    83   191    1
   141    84    83   ar
   142    84   192    1
   143    85    86   ar
   144    86    88   ar
   145    86   193    1
   146    87    89   ar
   147    87    85   ar
   148    88   195    1
   149    89    90   ar
   150    90   197    1
   151    90    88   ar
   152    91    92   ar
   153    92    94   ar
   154    92   198    1
   155    93    95   ar
   156    93    91   ar
   157    94   200    1
   158    95    96   ar
   159    96   202    1
   160    96    94   ar
   161    97    56    1
   162    97    99   ar
   163    98    97   ar
   164    99   204    1
   165   100    98   ar
   166   100   102   ar
   167   101    99   ar
   168   101   206    1
   169   102   101   ar
   170   103   105   ar
   171   103   104   ar
   172   104   106   ar
   173   105   107   ar
   174   106   108   ar
   175   106   210    1
   176   107   211    1
   177   107   108   ar
   178   108   212    1
   179   110    27    1
   180   112    27    1
   181   115    28    1
   182   117    29    1
   183   118    29    1
   184   121    32    1
   185   124    33    1
   186   125    33    1
   187   126    34    1
   188   128    34    1
   189   132    37    1
   190   134    38    1
   191   136    39    1
   192   137    39    1
   193   141    42    1
   194   142    42    1
   195   144    43    1
   196   145    43    1
   197   148    44    1
   198   157    53    1
   199   158    53    1
   200   159    54    1
   201   160    54    1
   202   161    55    1
   203   163    56    1
   204   166    57    1
   205   170    59    1
   206   171    60    1
   207   173    62    1
   208   174    63    1
   209   178    68    1
   210   179    69    1
   211   183    74    1
   212   185    76    1
   213   188    80    1
   214   190    82    1
   215   194    87    1
   216   196    89    1
   217   199    93    1
   218   201    95    1
   219   203    98    1
   220   205   100    1
   221   207   102    1
   222   208   104    1
   223   209   105    1
   224   213    20    2
   225   214    19    2
   226   215    22    2
   227   216    21    2
   228   218    17    2
   229   219    23    2
   230   221    57    1
   231   222    58    1
   232   223    54    1
   233   223    51    1
   234   224    55    1
   235   225    50    1
   236   225    56    1
   237   226    53    1
   238   227    59    1
   239   228    45    1
   240   228    60    1
   241   229     5    1
   242   229     7    1
   243   230     6    1
   244   230     8    1
   245   230   229    1
