@<TRIPOS>MOLECULE
RhRh_S-pPhTPCP_31-10_12_sp
 206 229 0 0 0
SMALL
GASTEIGER

@<TRIPOS>ATOM
      1 Rh          0.0503   -0.0133    0.2101 Rh      1  UNL1        0.0000
      2 Rh          0.0826    0.0987   -2.1775 Rh      1  UNL1        0.0000
      3 C          -1.6161   -1.9829   -1.0942 C.3     1  UNL1        0.0000
      4 C           2.2421   -1.4545   -1.0536 C.3     1  UNL1        0.0000
      5 C           1.7023    2.1095   -0.8348 C.3     1  UNL1        0.0000
      6 C          -2.0897    1.5623   -0.9535 C.3     1  UNL1        0.0000
      7 O          -1.6466    1.1654    0.1750 O.3     1  UNL1        0.0000
      8 O          -1.5001    1.3919   -2.0700 O.3     1  UNL1        0.0000
      9 O          -1.2394   -1.6029    0.0621 O.3     1  UNL1        0.0000
     10 O          -1.1969   -1.5194   -2.1990 O.3     1  UNL1        0.0000
     11 O           1.7571   -1.1702    0.0919 O.3     1  UNL1        0.0000
     12 O           1.6693   -1.2159   -2.1646 O.3     1  UNL1        0.0000
     13 O           1.3218    1.5969    0.2670 O.3     1  UNL1        0.0000
     14 O           1.3304    1.7387   -1.9910 O.3     1  UNL1        0.0000
     15 C          -4.6618    3.5837    0.7914 C.ar    1  UNL1        0.0000
     16 C          -3.3996    2.2886   -0.9792 C.3     1  UNL1        0.0000
     17 C          -4.2745    2.1821   -2.2832 C.3     1  UNL1        0.0000
     18 C          -5.3156    1.2416    2.1231 C.ar    1  UNL1        0.0000
     19 C          -4.1523    2.3734    0.3162 C.ar    1  UNL1        0.0000
     20 C          -5.4904    3.6288    1.9086 C.ar    1  UNL1        0.0000
     21 C          -5.7677    2.2318   -2.0641 C.ar    1  UNL1        0.0000
     22 C          -3.8865    1.3043   -3.4411 C.ar    1  UNL1        0.0000
     23 C          -3.6412    1.8812   -4.6903 C.ar    1  UNL1        0.0000
     24 C          -3.4860    3.4135   -2.0016 C.3     1  UNL1        0.0000
     25 C          -6.4377    1.1480   -1.4835 C.ar    1  UNL1        0.0000
     26 C          -4.4747    1.2014    1.0179 C.ar    1  UNL1        0.0000
     27 C          -6.5102    3.3479   -2.4565 C.ar    1  UNL1        0.0000
     28 C          -5.8509    2.4564    2.5821 C.ar    1  UNL1        0.0000
     29 C          -8.5454    2.3171   -1.6576 C.ar    1  UNL1        0.0000
     30 C          -3.3495    1.0841   -5.7965 C.ar    1  UNL1        0.0000
     31 C          -3.5536   -0.8861   -4.4209 C.ar    1  UNL1        0.0000
     32 C          -3.8426   -0.0857   -3.3196 C.ar    1  UNL1        0.0000
     33 C          -7.8913    3.3911   -2.2590 C.ar    1  UNL1        0.0000
     34 C          -7.8119    1.1935   -1.2706 C.ar    1  UNL1        0.0000
     35 C          -3.3061   -0.3046   -5.6651 C.ar    1  UNL1        0.0000
     36 C          -5.1163   -2.4141   -0.8156 C.ar    1  UNL1        0.0000
     37 C          -2.6849   -3.0467   -1.1344 C.3     1  UNL1        0.0000
     38 C          -2.2361   -4.5362   -1.2254 C.3     1  UNL1        0.0000
     39 C          -4.8744   -2.6479    1.9367 C.ar    1  UNL1        0.0000
     40 C          -3.8730   -2.7408   -0.2694 C.ar    1  UNL1        0.0000
     41 C          -6.2235   -2.1983    0.0028 C.ar    1  UNL1        0.0000
     42 C          -3.0623   -5.5272   -0.4380 C.ar    1  UNL1        0.0000
     43 C          -0.7652   -4.8472   -1.2635 C.ar    1  UNL1        0.0000
     44 C          -0.2610   -5.6743   -2.2728 C.ar    1  UNL1        0.0000
     45 C          -2.8383   -3.8243   -2.4098 C.3     1  UNL1        0.0000
     46 C          -2.5217   -6.1349    0.7045 C.ar    1  UNL1        0.0000
     47 C          -3.7662   -2.8365    1.1238 C.ar    1  UNL1        0.0000
     48 C          -4.3887   -5.8281   -0.7743 C.ar    1  UNL1        0.0000
     49 C          -6.1335   -2.3312    1.3964 C.ar    1  UNL1        0.0000
     50 C          -4.6082   -7.2728    1.1524 C.ar    1  UNL1        0.0000
     51 C           1.0719   -6.0815   -2.2564 C.ar    1  UNL1        0.0000
     52 C           1.4275   -4.8246   -0.2256 C.ar    1  UNL1        0.0000
     53 C           0.0956   -4.4164   -0.2471 C.ar    1  UNL1        0.0000
     54 C          -5.1542   -6.6871    0.0115 C.ar    1  UNL1        0.0000
     55 C          -3.2849   -6.9947    1.4916 C.ar    1  UNL1        0.0000
     56 C           1.9153   -5.6669   -1.2242 C.ar    1  UNL1        0.0000
     57 C           4.5393   -1.1388    1.0216 C.ar    1  UNL1        0.0000
     58 C           3.5947   -2.1146   -1.0817 C.3     1  UNL1        0.0000
     59 C           4.5505   -1.8447   -2.3227 C.3     1  UNL1        0.0000
     60 C           5.1325   -3.6481    2.0591 C.ar    1  UNL1        0.0000
     61 C           4.2313   -2.2768    0.2661 C.ar    1  UNL1        0.0000
     62 C           5.1197   -1.2565    2.2761 C.ar    1  UNL1        0.0000
     63 C           6.0340   -1.7732   -2.0302 C.ar    1  UNL1        0.0000
     64 C           4.1114   -0.9456   -3.4464 C.ar    1  UNL1        0.0000
     65 C           3.8043    0.3994   -3.2360 C.ar    1  UNL1        0.0000
     66 C           3.8207   -3.1405   -2.1696 C.3     1  UNL1        0.0000
     67 C           6.7477   -2.8471   -1.4778 C.ar    1  UNL1        0.0000
     68 C           4.5351   -3.5285    0.8061 C.ar    1  UNL1        0.0000
     69 C           6.7528   -0.6050   -2.3272 C.ar    1  UNL1        0.0000
     70 C           5.4345   -2.5122    2.8215 C.ar    1  UNL1        0.0000
     71 C           8.8101   -1.5831   -1.5101 C.ar    1  UNL1        0.0000
     72 C           3.4498    1.2262   -4.2987 C.ar    1  UNL1        0.0000
     73 C           3.7182   -0.6281   -5.8188 C.ar    1  UNL1        0.0000
     74 C           4.0694   -1.4507   -4.7488 C.ar    1  UNL1        0.0000
     75 C           8.1203   -0.5111   -2.0752 C.ar    1  UNL1        0.0000
     76 C           8.1123   -2.7524   -1.2119 C.ar    1  UNL1        0.0000
     77 C           3.4066    0.7142   -5.5964 C.ar    1  UNL1        0.0000
     78 C           5.1463    2.4698   -0.6940 C.ar    1  UNL1        0.0000
     79 C           2.7349    3.2078   -0.7460 C.3     1  UNL1        0.0000
     80 C           2.2646    4.6789   -0.5995 C.3     1  UNL1        0.0000
     81 C           5.0984    2.2525    2.0741 C.ar    1  UNL1        0.0000
     82 C           3.9693    2.7756   -0.0058 C.ar    1  UNL1        0.0000
     83 C           6.2786    2.0338   -0.0115 C.ar    1  UNL1        0.0000
     84 C           3.0995    5.5573    0.3035 C.ar    1  UNL1        0.0000
     85 C           0.7925    4.9912   -0.5705 C.ar    1  UNL1        0.0000
     86 C          -0.0744    4.3957    0.3534 C.ar    1  UNL1        0.0000
     87 C           2.8386    4.1640   -1.8983 C.3     1  UNL1        0.0000
     88 C           4.4198    5.9091   -0.0057 C.ar    1  UNL1        0.0000
     89 C           3.9612    2.6651    1.3905 C.ar    1  UNL1        0.0000
     90 C           2.5697    6.0023    1.5233 C.ar    1  UNL1        0.0000
     91 C           6.2728    1.9101    1.3836 C.ar    1  UNL1        0.0000
     92 C           4.6527    7.0924    2.0903 C.ar    1  UNL1        0.0000
     93 C          -1.4026    4.8109    0.4472 C.ar    1  UNL1        0.0000
     94 C          -1.0266    6.4109   -1.3222 C.ar    1  UNL1        0.0000
     95 C           0.2993    5.9933   -1.4144 C.ar    1  UNL1        0.0000
     96 C           3.3367    6.7582    2.4074 C.ar    1  UNL1        0.0000
     97 C           5.1887    6.6654    0.8765 C.ar    1  UNL1        0.0000
     98 C          -1.8764    5.8278   -0.3807 C.ar    1  UNL1        0.0000
     99 C          -7.3213   -2.1790    2.2706 C.ar    1  UNL1        0.0000
    100 C          -8.6201   -2.3784    1.7707 C.ar    1  UNL1        0.0000
    101 C          -7.1870   -1.8536    3.6308 C.ar    1  UNL1        0.0000
    102 C          -9.7357   -2.2528    2.5944 C.ar    1  UNL1        0.0000
    103 C          -8.3004   -1.7436    4.4593 C.ar    1  UNL1        0.0000
    104 C          -9.5820   -1.9396    3.9457 C.ar    1  UNL1        0.0000
    105 C          -6.7950    2.5068    3.7216 C.ar    1  UNL1        0.0000
    106 C          -6.6832    3.5012    4.7061 C.ar    1  UNL1        0.0000
    107 C          -7.8411    1.5781    3.8228 C.ar    1  UNL1        0.0000
    108 C          -7.5900    3.5646    5.7617 C.ar    1  UNL1        0.0000
    109 C          -8.7495    1.6437    4.8774 C.ar    1  UNL1        0.0000
    110 C          -8.6285    2.6361    5.8506 C.ar    1  UNL1        0.0000
    111 C           7.4621    1.3894    2.0948 C.ar    1  UNL1        0.0000
    112 C           7.8764    1.9288    3.3216 C.ar    1  UNL1        0.0000
    113 C           8.1883    0.3170    1.5510 C.ar    1  UNL1        0.0000
    114 C           8.9971    1.4213    3.9787 C.ar    1  UNL1        0.0000
    115 C           9.3071   -0.1879    2.2080 C.ar    1  UNL1        0.0000
    116 C           9.7193    0.3641    3.4224 C.ar    1  UNL1        0.0000
    117 C           6.0768   -2.6198    4.1512 C.ar    1  UNL1        0.0000
    118 C           6.9794   -1.6362    4.5861 C.ar    1  UNL1        0.0000
    119 C           5.8066   -3.7005    5.0057 C.ar    1  UNL1        0.0000
    120 C           7.5952   -1.7336    5.8309 C.ar    1  UNL1        0.0000
    121 C           6.4228   -3.7974    6.2514 C.ar    1  UNL1        0.0000
    122 C           7.3214   -2.8146    6.6699 C.ar    1  UNL1        0.0000
    123 H          -4.4400    4.5059    0.2689 H       1  UNL1        0.0000
    124 H          -5.5663    0.3200    2.6356 H       1  UNL1        0.0000
    125 H          -5.9018    4.5792    2.2338 H       1  UNL1        0.0000
    126 H          -3.6762    2.9616   -4.7925 H       1  UNL1        0.0000
    127 H          -4.0109    4.3125   -1.7078 H       1  UNL1        0.0000
    128 H          -2.5847    3.5807   -2.5782 H       1  UNL1        0.0000
    129 H          -5.8770    0.2781   -1.1670 H       1  UNL1        0.0000
    130 H          -6.0040    4.1897   -2.9193 H       1  UNL1        0.0000
    131 H          -9.6170    2.3556   -1.4879 H       1  UNL1        0.0000
    132 H          -3.1590    1.5469   -6.7603 H       1  UNL1        0.0000
    133 H          -3.5063   -1.9627   -4.3047 H       1  UNL1        0.0000
    134 H          -4.0006   -0.5370   -2.3483 H       1  UNL1        0.0000
    135 H          -8.4530    4.2672   -2.5691 H       1  UNL1        0.0000
    136 H          -8.3088    0.3577   -0.7863 H       1  UNL1        0.0000
    137 H          -3.0793   -0.9283   -6.5245 H       1  UNL1        0.0000
    138 H          -5.2273   -2.3306   -1.8916 H       1  UNL1        0.0000
    139 H          -4.7677   -2.7937    3.0055 H       1  UNL1        0.0000
    140 H          -7.1655   -1.9196   -0.4562 H       1  UNL1        0.0000
    141 H          -0.9254   -6.0101   -3.0635 H       1  UNL1        0.0000
    142 H          -3.8378   -4.0819   -2.7377 H       1  UNL1        0.0000
    143 H          -2.1554   -3.5590   -3.2077 H       1  UNL1        0.0000
    144 H          -1.4934   -5.9354    0.9802 H       1  UNL1        0.0000
    145 H          -4.8450   -5.3840   -1.6501 H       1  UNL1        0.0000
    146 H          -5.2051   -7.9398    1.7665 H       1  UNL1        0.0000
    147 H           1.4489   -6.7295   -3.0420 H       1  UNL1        0.0000
    148 H           2.0771   -4.4768    0.5690 H       1  UNL1        0.0000
    149 H          -0.2753   -3.7566    0.5276 H       1  UNL1        0.0000
    150 H          -6.1812   -6.8968   -0.2717 H       1  UNL1        0.0000
    151 H          -2.8406   -7.4476    2.3729 H       1  UNL1        0.0000
    152 H           2.9493   -5.9976   -1.2035 H       1  UNL1        0.0000
    153 H           4.3058   -0.1550    0.6321 H       1  UNL1        0.0000
    154 H           5.3905   -4.6328    2.4357 H       1  UNL1        0.0000
    155 H           5.3210   -0.3616    2.8499 H       1  UNL1        0.0000
    156 H           3.8139    0.7877   -2.2269 H       1  UNL1        0.0000
    157 H           4.3694   -4.0368   -1.9107 H       1  UNL1        0.0000
    158 H           2.9816   -3.3064   -2.8342 H       1  UNL1        0.0000
    159 H           6.2436   -3.7734   -1.2392 H       1  UNL1        0.0000
    160 H           6.2408    0.2351   -2.7774 H       1  UNL1        0.0000
    161 H           9.8746   -1.5095   -1.3102 H       1  UNL1        0.0000
    162 H           3.1856    2.2598   -4.1060 H       1  UNL1        0.0000
    163 H           3.6875   -1.0352   -6.8251 H       1  UNL1        0.0000
    164 H           4.3103   -2.4954   -4.9216 H       1  UNL1        0.0000
    165 H           8.6473    0.4051   -2.3250 H       1  UNL1        0.0000
    166 H           8.6295   -3.6018   -0.7763 H       1  UNL1        0.0000
    167 H           3.1284    1.3551   -6.4276 H       1  UNL1        0.0000
    168 H           5.1769    2.5706   -1.7737 H       1  UNL1        0.0000
    169 H           5.0682    2.1585    3.1551 H       1  UNL1        0.0000
    170 H           7.1783    1.7891   -0.5634 H       1  UNL1        0.0000
    171 H           0.2888    3.6058    0.9991 H       1  UNL1        0.0000
    172 H           3.8245    4.4826   -2.2142 H       1  UNL1        0.0000
    173 H           2.1318    4.0158   -2.7060 H       1  UNL1        0.0000
    174 H           4.8687    5.5844   -0.9362 H       1  UNL1        0.0000
    175 H           1.5463    5.7577    1.7817 H       1  UNL1        0.0000
    176 H           5.2519    7.6806    2.7785 H       1  UNL1        0.0000
    177 H          -2.0644    4.3336    1.1611 H       1  UNL1        0.0000
    178 H          -1.3931    7.1966   -1.9761 H       1  UNL1        0.0000
    179 H           0.9699    6.4574   -2.1316 H       1  UNL1        0.0000
    180 H           2.9010    7.0870    3.3462 H       1  UNL1        0.0000
    181 H           6.2105    6.9195    0.6112 H       1  UNL1        0.0000
    182 H          -2.9048    6.1655   -0.2963 H       1  UNL1        0.0000
    183 H           3.0560    2.9037    1.9352 H       1  UNL1        0.0000
    184 H          -4.0801    0.2477    0.6850 H       1  UNL1        0.0000
    185 H           4.3233   -4.4269    0.2364 H       1  UNL1        0.0000
    186 H          -2.8124   -3.0992    1.5637 H       1  UNL1        0.0000
    187 H          -8.7584   -2.6656    0.7341 H       1  UNL1        0.0000
    188 H          -6.2042   -1.6590    4.0453 H       1  UNL1        0.0000
    189 H         -10.7270   -2.4156    2.1824 H       1  UNL1        0.0000
    190 H          -8.1649   -1.4786    5.5027 H       1  UNL1        0.0000
    191 H         -10.4510   -1.8504    4.5901 H       1  UNL1        0.0000
    192 H          -5.8658    4.2136    4.6492 H       1  UNL1        0.0000
    193 H          -7.9533    0.8163    3.0597 H       1  UNL1        0.0000
    194 H          -7.4825    4.3358    6.5189 H       1  UNL1        0.0000
    195 H          -9.5559    0.9195    4.9299 H       1  UNL1        0.0000
    196 H          -9.3377    2.6869    6.6714 H       1  UNL1        0.0000
    197 H           7.3304    2.7647    3.7481 H       1  UNL1        0.0000
    198 H           7.8509   -0.1431    0.6301 H       1  UNL1        0.0000
    199 H           9.3100    1.8571    4.9229 H       1  UNL1        0.0000
    200 H           9.8442   -1.0274    1.7773 H       1  UNL1        0.0000
    201 H          10.5881   -0.0338    3.9373 H       1  UNL1        0.0000
    202 H           7.2212   -0.8059    3.9358 H       1  UNL1        0.0000
    203 H           5.0884   -4.4553    4.7010 H       1  UNL1        0.0000
    204 H           8.2980   -0.9644    6.1363 H       1  UNL1        0.0000
    205 H           6.1937   -4.6374    6.9007 H       1  UNL1        0.0000
    206 H           7.8013   -2.8909    7.6409 H       1  UNL1        0.0000
@<TRIPOS>BOND
     1     1    13    1
     2     2    12    1
     3     2     8    1
     4     2    14    1
     5     2     1    1
     6     3    10    1
     7     3     9    1
     8     4    12    1
     9     4    11    1
    10     5    14    1
    11     5    79    1
    12     5    13    1
    13     6     8    1
    14     6     7    1
    15     7     1    1
    16     9     1    1
    17    10     2    1
    18    11     1    1
    19    15    20   ar
    20    16     6    1
    21    16    19    1
    22    17    21    1
    23    17    24    1
    24    17    16    1
    25    18    28   ar
    26    18   124    1
    27    19    15   ar
    28    19    26   ar
    29    20   125    1
    30    20    28   ar
    31    21    25   ar
    32    22    32   ar
    33    22    17    1
    34    23    22   ar
    35    24   127    1
    36    24    16    1
    37    25    34   ar
    38    25   129    1
    39    26    18   ar
    40    27    33   ar
    41    27    21   ar
    42    28   105    1
    43    29   131    1
    44    29    34   ar
    45    30    35   ar
    46    30    23   ar
    47    31   133    1
    48    31    32   ar
    49    32   134    1
    50    33    29   ar
    51    34   136    1
    52    35    31   ar
    53    36    40   ar
    54    36    41   ar
    55    37     3    1
    56    37    40    1
    57    38    37    1
    58    38    42    1
    59    39   139    1
    60    40    47   ar
    61    41    49   ar
    62    42    46   ar
    63    43    38    1
    64    43    53   ar
    65    44    51   ar
    66    44    43   ar
    67    45    38    1
    68    45    37    1
    69    46   144    1
    70    46    55   ar
    71    47   186    1
    72    47    39   ar
    73    48    42   ar
    74    48    54   ar
    75    49    39   ar
    76    49    99    1
    77    50    55   ar
    78    50   146    1
    79    51    56   ar
    80    52   148    1
    81    53    52   ar
    82    53   149    1
    83    54    50   ar
    84    55   151    1
    85    56   152    1
    86    56    52   ar
    87    57    62   ar
    88    58     4    1
    89    58    61    1
    90    59    66    1
    91    59    63    1
    92    59    58    1
    93    60   154    1
    94    60    70   ar
    95    61    68   ar
    96    61    57   ar
    97    62    70   ar
    98    62   155    1
    99    63    67   ar
   100    64    65   ar
   101    64    59    1
   102    65   156    1
   103    66   157    1
   104    66    58    1
   105    67   159    1
   106    67    76   ar
   107    68    60   ar
   108    69    75   ar
   109    69    63   ar
   110    70   117    1
   111    71   161    1
   112    71    76   ar
   113    72   162    1
   114    72    65   ar
   115    73    77   ar
   116    73    74   ar
   117    74    64   ar
   118    75    71   ar
   119    76   166    1
   120    77    72   ar
   121    78    83   ar
   122    78    82   ar
   123    79    80    1
   124    79    82    1
   125    80    85    1
   126    80    84    1
   127    81   169    1
   128    82    89   ar
   129    83    91   ar
   130    84    90   ar
   131    85    86   ar
   132    86    93   ar
   133    86   171    1
   134    87    79    1
   135    87    80    1
   136    88    84   ar
   137    88    97   ar
   138    89   183    1
   139    89    81   ar
   140    90   175    1
   141    90    96   ar
   142    91    81   ar
   143    91   111    1
   144    92    96   ar
   145    92   176    1
   146    93   177    1
   147    94    98   ar
   148    95    94   ar
   149    95    85   ar
   150    96   180    1
   151    97    92   ar
   152    98   182    1
   153    98    93   ar
   154    99   101   ar
   155   100    99   ar
   156   100   102   ar
   157   101   188    1
   158   101   103   ar
   159   102   104   ar
   160   103   190    1
   161   104   103   ar
   162   104   191    1
   163   105   107   ar
   164   105   106   ar
   165   106   108   ar
   166   107   109   ar
   167   108   110   ar
   168   108   194    1
   169   109   195    1
   170   109   110   ar
   171   110   196    1
   172   111   112   ar
   173   112   197    1
   174   112   114   ar
   175   113   111   ar
   176   113   115   ar
   177   114   199    1
   178   115   116   ar
   179   116   201    1
   180   116   114   ar
   181   117   118   ar
   182   117   119   ar
   183   118   120   ar
   184   119   121   ar
   185   120   204    1
   186   120   122   ar
   187   121   122   ar
   188   121   205    1
   189   122   206    1
   190   123    15    1
   191   126    23    1
   192   128    24    1
   193   130    27    1
   194   132    30    1
   195   135    33    1
   196   137    35    1
   197   138    36    1
   198   140    41    1
   199   141    44    1
   200   142    45    1
   201   143    45    1
   202   145    48    1
   203   147    51    1
   204   150    54    1
   205   153    57    1
   206   158    66    1
   207   160    69    1
   208   163    73    1
   209   164    74    1
   210   165    75    1
   211   167    77    1
   212   168    78    1
   213   170    83    1
   214   172    87    1
   215   173    87    1
   216   174    88    1
   217   178    94    1
   218   179    95    1
   219   181    97    1
   220   184    26    1
   221   185    68    1
   222   187   100    1
   223   189   102    1
   224   192   106    1
   225   193   107    1
   226   198   113    1
   227   200   115    1
   228   202   118    1
   229   203   119    1
