@<TRIPOS>MOLECULE
RhRh_S-PhenTTL4_11_sp
 180 199 0 0 0
SMALL
GASTEIGER

@<TRIPOS>ATOM
      1 Rh         -0.6493   -1.2079   -2.6204 Rh      1  UNL1        0.0000
      2 Rh         -1.0229   -0.6496   -0.3256 Rh      1  UNL1        0.0000
      3 C          -2.9340    0.5087   -2.1450 C.3     1  UNL1        0.0000
      4 C           1.2643   -2.3327   -0.7675 C.3     1  UNL1        0.0000
      5 C          -2.4729   -2.9765   -1.2616 C.3     1  UNL1        0.0000
      6 C           0.7043    1.1751   -1.7395 C.3     1  UNL1        0.0000
      7 O           1.0183   -2.2769   -2.0139 O.3     1  UNL1        0.0000
      8 O           0.5914   -1.7768    0.1486 O.3     1  UNL1        0.0000
      9 O           0.4799    0.4902   -2.7820 O.3     1  UNL1        0.0000
     10 O           0.2164    0.9665   -0.5859 O.3     1  UNL1        0.0000
     11 O          -2.3331   -0.1058   -3.0782 O.3     1  UNL1        0.0000
     12 O          -2.6612    0.4359   -0.9081 O.3     1  UNL1        0.0000
     13 O          -1.8770   -2.8452   -2.3719 O.3     1  UNL1        0.0000
     14 O          -2.2293   -2.3140   -0.2039 O.3     1  UNL1        0.0000
     15 N           3.5440   -2.5545    0.2607 N.am    1  UNL1        0.0000
     16 N           2.8861    2.0510   -1.1125 N.am    1  UNL1        0.0000
     17 N          -4.0155    2.6016   -1.6309 N.am    1  UNL1        0.0000
     18 N          -4.4880   -3.6119   -0.0916 N.am    1  UNL1        0.0000
     19 C           2.3996   -3.2582   -0.3303 C.3     1  UNL1        0.0000
     20 C           4.8507   -3.0059   -0.0156 C.2     1  UNL1        0.0000
     21 C           5.7605   -2.2627    0.9031 C.ar    1  UNL1        0.0000
     22 C           7.1635   -2.4089    1.0942 C.ar    1  UNL1        0.0000
     23 C           7.7931   -1.5261    2.0261 C.ar    1  UNL1        0.0000
     24 C           7.0144   -0.5082    2.7297 C.ar    1  UNL1        0.0000
     25 C           5.5895   -0.4102    2.4998 C.ar    1  UNL1        0.0000
     26 C           5.0185   -1.3409    1.5818 C.ar    1  UNL1        0.0000
     27 C           3.5805   -1.4971    1.1966 C.2     1  UNL1        0.0000
     28 C           1.8582   -4.4268    0.5702 C.3     1  UNL1        0.0000
     29 C           0.5781   -4.9855   -0.0829 C.3     1  UNL1        0.0000
     30 C           2.9163   -5.5430    0.6242 C.3     1  UNL1        0.0000
     31 C           1.5489   -3.9665    2.0034 C.3     1  UNL1        0.0000
     32 C           1.6502    2.3795   -1.8234 C.3     1  UNL1        0.0000
     33 C           3.4951    2.9277   -0.2005 C.2     1  UNL1        0.0000
     34 C           4.8742    2.3906    0.0263 C.ar    1  UNL1        0.0000
     35 C           5.9490    2.9474    0.7775 C.ar    1  UNL1        0.0000
     36 C           7.2252    2.3071    0.6665 C.ar    1  UNL1        0.0000
     37 C           7.3965    1.1510   -0.2059 C.ar    1  UNL1        0.0000
     38 C           6.2711    0.5967   -0.8920 C.ar    1  UNL1        0.0000
     39 C           5.0201    1.2544   -0.7230 C.ar    1  UNL1        0.0000
     40 C           3.7116    0.9453   -1.3713 C.2     1  UNL1        0.0000
     41 C           1.9140    3.0050   -3.2293 C.3     1  UNL1        0.0000
     42 C           0.5657    3.3978   -3.8584 C.3     1  UNL1        0.0000
     43 C           2.7461    4.2862   -3.0248 C.3     1  UNL1        0.0000
     44 C           2.6790    2.0726   -4.1844 C.3     1  UNL1        0.0000
     45 C          -4.1261    1.4177   -2.4854 C.3     1  UNL1        0.0000
     46 C          -2.7964    3.1960   -1.2696 C.2     1  UNL1        0.0000
     47 C          -3.0897    4.0805   -0.1080 C.ar    1  UNL1        0.0000
     48 C          -2.1835    4.8386    0.6866 C.ar    1  UNL1        0.0000
     49 C          -2.7368    5.5945    1.7678 C.ar    1  UNL1        0.0000
     50 C          -4.1791    5.5974    1.9959 C.ar    1  UNL1        0.0000
     51 C          -5.0435    4.8077    1.1712 C.ar    1  UNL1        0.0000
     52 C          -4.4344    4.0334    0.1413 C.ar    1  UNL1        0.0000
     53 C          -5.0453    3.0289   -0.7809 C.2     1  UNL1        0.0000
     54 C          -4.3892    1.7402   -3.9836 C.3     1  UNL1        0.0000
     55 C          -3.1719    2.3798   -4.6697 C.3     1  UNL1        0.0000
     56 C          -4.7920    0.4393   -4.7045 C.3     1  UNL1        0.0000
     57 C          -5.5766    2.7192   -4.0521 C.3     1  UNL1        0.0000
     58 C          -3.5585   -4.0532   -1.1251 C.3     1  UNL1        0.0000
     59 C          -5.0177   -2.3138    0.0126 C.2     1  UNL1        0.0000
     60 C          -5.5228   -2.1865    1.4121 C.ar    1  UNL1        0.0000
     61 C          -6.1369   -1.0675    2.0460 C.ar    1  UNL1        0.0000
     62 C          -6.4913   -1.2093    3.4266 C.ar    1  UNL1        0.0000
     63 C          -6.2477   -2.4688    4.1228 C.ar    1  UNL1        0.0000
     64 C          -5.6178   -3.5582    3.4418 C.ar    1  UNL1        0.0000
     65 C          -5.2655   -3.3563    2.0757 C.ar    1  UNL1        0.0000
     66 C          -4.5505   -4.2752    1.1466 C.2     1  UNL1        0.0000
     67 C          -4.2296   -4.5764   -2.4315 C.3     1  UNL1        0.0000
     68 C          -4.7756   -3.4503   -3.3245 C.3     1  UNL1        0.0000
     69 C          -3.1957   -5.4110   -3.2125 C.3     1  UNL1        0.0000
     70 C          -5.3851   -5.5046   -2.0132 C.3     1  UNL1        0.0000
     71 C          -4.7806    6.3601    3.0224 C.ar    1  UNL1        0.0000
     72 C          -6.4421    4.8241    1.3789 C.ar    1  UNL1        0.0000
     73 C          -1.8325    6.3073    2.5869 C.ar    1  UNL1        0.0000
     74 C          -0.7869    4.8095    0.4703 C.ar    1  UNL1        0.0000
     75 C           0.0649    5.5079    1.2994 C.ar    1  UNL1        0.0000
     76 C          -0.4688    6.2647    2.3599 C.ar    1  UNL1        0.0000
     77 C          -6.9879    5.5831    2.3932 C.ar    1  UNL1        0.0000
     78 C          -6.1482    6.3504    3.2215 C.ar    1  UNL1        0.0000
     79 C          -6.3685    0.1517    1.3692 C.ar    1  UNL1        0.0000
     80 C          -7.0630   -0.0889    4.0701 C.ar    1  UNL1        0.0000
     81 C          -6.9297    1.2203    2.0356 C.ar    1  UNL1        0.0000
     82 C          -7.2738    1.0979    3.3936 C.ar    1  UNL1        0.0000
     83 C          -6.6070   -2.6692    5.4748 C.ar    1  UNL1        0.0000
     84 C          -5.3624   -4.7752    4.1154 C.ar    1  UNL1        0.0000
     85 C          -5.7266   -4.9268    5.4369 C.ar    1  UNL1        0.0000
     86 C          -6.3547   -3.8667    6.1166 C.ar    1  UNL1        0.0000
     87 C           7.9191   -3.3838    0.4045 C.ar    1  UNL1        0.0000
     88 C           9.1861   -1.6752    2.2171 C.ar    1  UNL1        0.0000
     89 C           7.6525    0.4052    3.6303 C.2     1  UNL1        0.0000
     90 C           4.7734    0.5853    3.1353 C.2     1  UNL1        0.0000
     91 C           9.2764   -3.4949    0.6206 C.ar    1  UNL1        0.0000
     92 C           9.9106   -2.6324    1.5329 C.ar    1  UNL1        0.0000
     93 C           5.5396    1.3701    3.9476 C.2     1  UNL1        0.0000
     94 C           6.7724    1.3028    4.1730 C.2     1  UNL1        0.0000
     95 C           5.7862    4.0837    1.6025 C.ar    1  UNL1        0.0000
     96 C           8.2910    2.8514    1.4168 C.ar    1  UNL1        0.0000
     97 C           6.8552    4.5828    2.3162 C.ar    1  UNL1        0.0000
     98 C           8.1129    3.9596    2.2222 C.ar    1  UNL1        0.0000
     99 C           8.6551    0.5483   -0.4318 C.ar    1  UNL1        0.0000
    100 C           6.4284   -0.5165   -1.7511 C.ar    1  UNL1        0.0000
    101 C           7.6757   -1.0689   -1.9463 C.ar    1  UNL1        0.0000
    102 C           8.7937   -0.5290   -1.2842 C.ar    1  UNL1        0.0000
    103 H           2.7962   -3.6985   -1.2465 H       1  UNL1        0.0000
    104 H          -0.2460   -4.2715   -0.0147 H       1  UNL1        0.0000
    105 H           0.2681   -5.8973    0.4358 H       1  UNL1        0.0000
    106 H           0.7382   -5.2341   -1.1373 H       1  UNL1        0.0000
    107 H           3.1867   -5.8953   -0.3750 H       1  UNL1        0.0000
    108 H           2.5223   -6.3898    1.1950 H       1  UNL1        0.0000
    109 H           3.8319   -5.2111    1.1202 H       1  UNL1        0.0000
    110 H           1.1390   -4.8083    2.5709 H       1  UNL1        0.0000
    111 H           0.8298   -3.1480    2.0184 H       1  UNL1        0.0000
    112 H           2.4560   -3.6357    2.5176 H       1  UNL1        0.0000
    113 H           1.1802    3.1463   -1.2048 H       1  UNL1        0.0000
    114 H           0.7463    3.9017   -4.8131 H       1  UNL1        0.0000
    115 H           0.0070    4.0790   -3.2123 H       1  UNL1        0.0000
    116 H          -0.0621    2.5261   -4.0423 H       1  UNL1        0.0000
    117 H           2.8659    4.7995   -3.9837 H       1  UNL1        0.0000
    118 H           3.7485    4.0650   -2.6461 H       1  UNL1        0.0000
    119 H           2.2646    4.9759   -2.3253 H       1  UNL1        0.0000
    120 H           2.7745    2.5648   -5.1580 H       1  UNL1        0.0000
    121 H           2.1626    1.1230   -4.3186 H       1  UNL1        0.0000
    122 H           3.6910    1.8651   -3.8271 H       1  UNL1        0.0000
    123 H          -5.0028    0.8793   -2.1067 H       1  UNL1        0.0000
    124 H          -3.4246    2.6245   -5.7068 H       1  UNL1        0.0000
    125 H          -2.3161    1.7042   -4.6725 H       1  UNL1        0.0000
    126 H          -2.8721    3.3035   -4.1688 H       1  UNL1        0.0000
    127 H          -5.0762    0.6649   -5.7373 H       1  UNL1        0.0000
    128 H          -5.6534   -0.0297   -4.2160 H       1  UNL1        0.0000
    129 H          -3.9743   -0.2809   -4.7213 H       1  UNL1        0.0000
    130 H          -5.8518    2.8874   -5.0977 H       1  UNL1        0.0000
    131 H          -5.3216    3.6886   -3.6148 H       1  UNL1        0.0000
    132 H          -6.4510    2.3304   -3.5226 H       1  UNL1        0.0000
    133 H          -3.0565   -4.9159   -0.6682 H       1  UNL1        0.0000
    134 H          -5.2221   -3.8870   -4.2240 H       1  UNL1        0.0000
    135 H          -3.9829   -2.7666   -3.6330 H       1  UNL1        0.0000
    136 H          -5.5401   -2.8664   -2.8098 H       1  UNL1        0.0000
    137 H          -3.6716   -5.8537   -4.0931 H       1  UNL1        0.0000
    138 H          -2.8072   -6.2313   -2.5978 H       1  UNL1        0.0000
    139 H          -2.3562   -4.8000   -3.5446 H       1  UNL1        0.0000
    140 H          -5.0430   -6.2841   -1.3245 H       1  UNL1        0.0000
    141 H          -5.8054   -5.9911   -2.8986 H       1  UNL1        0.0000
    142 H          -6.1874   -4.9484   -1.5214 H       1  UNL1        0.0000
    143 H           3.7119    0.6386    2.9375 H       1  UNL1        0.0000
    144 H           8.7156    0.3728    3.8258 H       1  UNL1        0.0000
    145 H           9.7104   -1.0348    2.9149 H       1  UNL1        0.0000
    146 H           7.4029   -4.0277   -0.2968 H       1  UNL1        0.0000
    147 H          -7.3358   -0.1468    5.1166 H       1  UNL1        0.0000
    148 H          -7.0940   -1.8760    6.0283 H       1  UNL1        0.0000
    149 H          -4.8754   -5.5731    3.5684 H       1  UNL1        0.0000
    150 H          -6.0949    0.2336    0.3261 H       1  UNL1        0.0000
    151 H           9.2694    2.3889    1.3763 H       1  UNL1        0.0000
    152 H           4.8066    4.5426    1.6561 H       1  UNL1        0.0000
    153 H          -2.2019    6.8918    3.4207 H       1  UNL1        0.0000
    154 H          -0.4095    4.2111   -0.3468 H       1  UNL1        0.0000
    155 H          -4.1660    6.9743    3.6688 H       1  UNL1        0.0000
    156 H          -7.0670    4.2417    0.7132 H       1  UNL1        0.0000
    157 O          -4.0721   -5.3748    1.3563 O.2     1  UNL1        0.0000
    158 O          -5.0334   -1.4957   -0.8886 O.2     1  UNL1        0.0000
    159 O          -1.7379    2.9968   -1.8349 O.2     1  UNL1        0.0000
    160 O          -6.1879    2.6065   -0.8129 O.2     1  UNL1        0.0000
    161 O           2.9761    3.9330    0.2493 O.2     1  UNL1        0.0000
    162 O           3.3796   -0.0538   -1.9798 O.2     1  UNL1        0.0000
    163 O           2.6421   -0.8463    1.6042 O.2     1  UNL1        0.0000
    164 O           5.1314   -3.8403   -0.8556 O.2     1  UNL1        0.0000
    165 H           9.5366    0.9339    0.0644 H       1  UNL1        0.0000
    166 H           1.1358    5.4514    1.1374 H       1  UNL1        0.0000
    167 H           0.1976    6.8160    3.0162 H       1  UNL1        0.0000
    168 H          -8.0623    5.5954    2.5468 H       1  UNL1        0.0000
    169 H          -6.5771    6.9491    4.0191 H       1  UNL1        0.0000
    170 H           5.5525   -0.9157   -2.2473 H       1  UNL1        0.0000
    171 H           7.7924   -1.9261   -2.6005 H       1  UNL1        0.0000
    172 H           9.7722   -0.9741   -1.4280 H       1  UNL1        0.0000
    173 H           6.7264    5.4514    2.9538 H       1  UNL1        0.0000
    174 H           8.9517    4.3485    2.7910 H       1  UNL1        0.0000
    175 H          -7.0931    2.1493    1.5062 H       1  UNL1        0.0000
    176 H          -7.7049    1.9454    3.9178 H       1  UNL1        0.0000
    177 H          -5.5306   -5.8617    5.9520 H       1  UNL1        0.0000
    178 H          -6.6447   -3.9882    7.1557 H       1  UNL1        0.0000
    179 H           9.8535   -4.2453    0.0899 H       1  UNL1        0.0000
    180 H          10.9787   -2.7193    1.7067 H       1  UNL1        0.0000
@<TRIPOS>BOND
     1     1    13    1
     2     1     7    1
     3     1     2    1
     4     2    14    1
     5     2     8    1
     6     3    45    1
     7     3    12    1
     8     4    19    1
     9     4     8    1
    10     5    58    1
    11     5    14    1
    12     6    32    1
    13     6    10    1
    14     7     4    1
    15     9     1    1
    16     9     6    1
    17    10     2    1
    18    11     1    1
    19    11     3    1
    20    12     2    1
    21    13     5    1
    22    15    27   am
    23    16    33   am
    24    17    46   am
    25    17    53   am
    26    18    59   am
    27    18    66   am
    28    19   103    1
    29    19    15    1
    30    19    28    1
    31    20    15   am
    32    20    21    1
    33    21    22   ar
    34    21    26   ar
    35    22    23   ar
    36    23    88   ar
    37    23    24   ar
    38    24    89    1
    39    25    24   ar
    40    25    90    1
    41    26    25   ar
    42    27    26    1
    43    27   163    2
    44    28    30    1
    45    28    31    1
    46    29   104    1
    47    29   105    1
    48    29    28    1
    49    30   109    1
    50    30   108    1
    51    31   111    1
    52    31   112    1
    53    31   110    1
    54    32   113    1
    55    32    16    1
    56    33    34    1
    57    33   161    2
    58    34    35   ar
    59    35    95   ar
    60    36    35   ar
    61    36    96   ar
    62    37    36   ar
    63    38    39   ar
    64    38    37   ar
    65    39    34   ar
    66    40    16   am
    67    40    39    1
    68    41    43    1
    69    41    32    1
    70    42    41    1
    71    42   115    1
    72    43   118    1
    73    43   119    1
    74    44   122    1
    75    44    41    1
    76    45   123    1
    77    45    17    1
    78    46    47    1
    79    47    52   ar
    80    47    48   ar
    81    48    49   ar
    82    49    50   ar
    83    49    73   ar
    84    50    71   ar
    85    51    72   ar
    86    51    50   ar
    87    52    51   ar
    88    53    52    1
    89    54    45    1
    90    55   126    1
    91    55    54    1
    92    56   128    1
    93    56    54    1
    94    57    54    1
    95    57   131    1
    96    57   132    1
    97    58   133    1
    98    58    18    1
    99    59    60    1
   100    60    61   ar
   101    60    65   ar
   102    61    62   ar
   103    62    80   ar
   104    62    63   ar
   105    63    83   ar
   106    64    84   ar
   107    64    63   ar
   108    65    64   ar
   109    66   157    2
   110    66    65    1
   111    67    70    1
   112    67    58    1
   113    68   136    1
   114    68    67    1
   115    69   138    1
   116    69    67    1
   117    70   142    1
   118    70   140    1
   119    71    78   ar
   120    71   155    1
   121    72    77   ar
   122    73   153    1
   123    74    48   ar
   124    74    75   ar
   125    75    76   ar
   126    76    73   ar
   127    76   167    1
   128    77   168    1
   129    77    78   ar
   130    78   169    1
   131    79    81   ar
   132    79    61   ar
   133    80   147    1
   134    81    82   ar
   135    82   176    1
   136    82    80   ar
   137    83   148    1
   138    83    86   ar
   139    84    85   ar
   140    85   177    1
   141    85    86   ar
   142    86   178    1
   143    87    91   ar
   144    87    22   ar
   145    88   145    1
   146    89   144    1
   147    89    94    2
   148    90    93    2
   149    91    92   ar
   150    92   180    1
   151    92    88   ar
   152    93    94    1
   153    95   152    1
   154    95    97   ar
   155    96    98   ar
   156    97   173    1
   157    98    97   ar
   158    98   174    1
   159    99    37   ar
   160    99   165    1
   161   100    38   ar
   162   101   100   ar
   163   101   102   ar
   164   102    99   ar
   165   106    29    1
   166   107    30    1
   167   114    42    1
   168   116    42    1
   169   117    43    1
   170   120    44    1
   171   121    44    1
   172   124    55    1
   173   125    55    1
   174   127    56    1
   175   129    56    1
   176   130    57    1
   177   134    68    1
   178   135    68    1
   179   137    69    1
   180   139    69    1
   181   141    70    1
   182   143    90    1
   183   146    87    1
   184   149    84    1
   185   150    79    1
   186   151    96    1
   187   154    74    1
   188   156    72    1
   189   158    59    2
   190   159    46    2
   191   160    53    2
   192   162    40    2
   193   164    20    2
   194   166    75    1
   195   170   100    1
   196   171   101    1
   197   172   102    1
   198   175    81    1
   199   179    91    1
