@<TRIPOS>MOLECULE
RhRh_EtEtiPr-O2C4_27_sp
 114 117 0 0 0
SMALL
GASTEIGER

@<TRIPOS>ATOM
      1 Rh         -0.0020    0.0157   -1.1317 Rh      1  UNL1        0.0000
      2 Rh         -0.0433   -0.0365    1.2462 Rh      1  UNL1        0.0000
      3 C          -0.3318   -2.6418    0.0079 C.3     1  UNL1        0.0000
      4 C          -2.6676    0.1815    0.0233 C.3     1  UNL1        0.0000
      5 C           0.1667    2.6311    0.1386 C.3     1  UNL1        0.0000
      6 C           2.6213   -0.2481    0.0720 C.3     1  UNL1        0.0000
      7 O          -2.0656    0.0491   -1.0943 O.3     1  UNL1        0.0000
      8 O          -2.0793    0.2538    1.1513 O.3     1  UNL1        0.0000
      9 O          -0.0518   -2.0569   -1.0916 O.3     1  UNL1        0.0000
     10 O          -0.3948   -2.0577    1.1385 O.3     1  UNL1        0.0000
     11 O           0.0281    2.0797   -1.0041 O.3     1  UNL1        0.0000
     12 O           0.2387    1.9955    1.2406 O.3     1  UNL1        0.0000
     13 O           2.0546   -0.0338   -1.0492 O.3     1  UNL1        0.0000
     14 O           2.0017   -0.3360    1.1837 O.3     1  UNL1        0.0000
     15 C          -4.2007    0.2785   -0.0081 C.3     1  UNL1        0.0000
     16 C          -4.7702   -1.0128   -0.6757 C.3     1  UNL1        0.0000
     17 C          -4.6698   -1.1332   -2.1985 C.3     1  UNL1        0.0000
     18 C          -4.5526    1.5493   -0.8582 C.3     1  UNL1        0.0000
     19 C          -6.0618    1.7790   -1.0136 C.3     1  UNL1        0.0000
     20 C          -3.8798    2.8184   -0.3253 C.3     1  UNL1        0.0000
     21 C          -4.7599    0.4000    1.4319 C.3     1  UNL1        0.0000
     22 C          -4.6339   -0.8387    2.3259 C.3     1  UNL1        0.0000
     23 C          -0.5552   -4.1593   -0.0225 C.3     1  UNL1        0.0000
     24 C          -1.2383   -4.5743   -1.3565 C.3     1  UNL1        0.0000
     25 C          -2.4331   -3.7546   -1.8549 C.3     1  UNL1        0.0000
     26 C           0.8959   -4.7898   -0.0042 C.3     1  UNL1        0.0000
     27 C           1.7107   -4.4300    1.2462 C.3     1  UNL1        0.0000
     28 C           0.9028   -6.3133   -0.1975 C.3     1  UNL1        0.0000
     29 C          -1.3390   -4.6122    1.2329 C.3     1  UNL1        0.0000
     30 C          -2.7734   -4.0997    1.3923 C.3     1  UNL1        0.0000
     31 C           0.2939    4.1606    0.1954 C.3     1  UNL1        0.0000
     32 C          -0.6040    4.7729   -0.9122 C.3     1  UNL1        0.0000
     33 C          -0.5682    6.2999   -1.0057 C.3     1  UNL1        0.0000
     34 C           1.8087    4.5267   -0.0451 C.3     1  UNL1        0.0000
     35 C           2.7612    3.8568    0.9583 C.3     1  UNL1        0.0000
     36 C           2.2766    4.2706   -1.4848 C.3     1  UNL1        0.0000
     37 C          -0.1287    4.6636    1.5994 C.3     1  UNL1        0.0000
     38 C          -1.6022    4.4654    1.9619 C.3     1  UNL1        0.0000
     39 C           4.1487   -0.4902    0.0986 C.3     1  UNL1        0.0000
     40 C           4.3056   -2.0388    0.1549 C.3     1  UNL1        0.0000
     41 C           3.7569   -2.7980   -1.0560 C.3     1  UNL1        0.0000
     42 C           4.6709    0.1305    1.4264 C.3     1  UNL1        0.0000
     43 C           6.1708    0.0315    1.7176 C.3     1  UNL1        0.0000
     44 C           4.7922    0.0977   -1.1987 C.3     1  UNL1        0.0000
     45 C           4.8015    1.6296   -1.1969 C.3     1  UNL1        0.0000
     46 C           6.1931   -0.4359   -1.5420 C.3     1  UNL1        0.0000
     47 H          -4.2773   -1.8772   -0.2210 H       1  UNL1        0.0000
     48 H          -5.8235   -1.0877   -0.3811 H       1  UNL1        0.0000
     49 H          -3.6432   -1.0027   -2.5417 H       1  UNL1        0.0000
     50 H          -5.2948   -0.3970   -2.7110 H       1  UNL1        0.0000
     51 H          -5.0103   -2.1251   -2.5110 H       1  UNL1        0.0000
     52 H          -4.1358    1.3642   -1.8525 H       1  UNL1        0.0000
     53 H          -6.5921    0.8843   -1.3491 H       1  UNL1        0.0000
     54 H          -6.2385    2.5657   -1.7541 H       1  UNL1        0.0000
     55 H          -6.5202    2.1090   -0.0764 H       1  UNL1        0.0000
     56 H          -4.0869    3.6629   -0.9905 H       1  UNL1        0.0000
     57 H          -2.7960    2.7015   -0.2729 H       1  UNL1        0.0000
     58 H          -4.2403    3.0879    0.6715 H       1  UNL1        0.0000
     59 H          -4.2721    1.2405    1.9315 H       1  UNL1        0.0000
     60 H          -5.0469   -0.6222    3.3164 H       1  UNL1        0.0000
     61 H          -3.5908   -1.1313    2.4559 H       1  UNL1        0.0000
     62 H          -5.1846   -1.6946    1.9256 H       1  UNL1        0.0000
     63 H          -0.4729   -4.5546   -2.1397 H       1  UNL1        0.0000
     64 H          -1.5451   -5.6203   -1.2506 H       1  UNL1        0.0000
     65 H          -2.7349   -4.1163   -2.8433 H       1  UNL1        0.0000
     66 H          -2.1788   -2.6997   -1.9543 H       1  UNL1        0.0000
     67 H          -3.3031   -3.8339   -1.2029 H       1  UNL1        0.0000
     68 H           1.4045   -4.3533   -0.8702 H       1  UNL1        0.0000
     69 H           2.7450   -4.7634    1.1194 H       1  UNL1        0.0000
     70 H           1.3174   -4.9277    2.1377 H       1  UNL1        0.0000
     71 H           1.7238   -3.3562    1.4426 H       1  UNL1        0.0000
     72 H           1.9381   -6.6682   -0.2276 H       1  UNL1        0.0000
     73 H           0.4237   -6.6220   -1.1287 H       1  UNL1        0.0000
     74 H           0.4078   -6.8314    0.6297 H       1  UNL1        0.0000
     75 H          -0.7728   -4.3027    2.1129 H       1  UNL1        0.0000
     76 H          -3.1368   -4.3208    2.4009 H       1  UNL1        0.0000
     77 H          -3.4648   -4.5701    0.6895 H       1  UNL1        0.0000
     78 H          -2.8261   -3.0171    1.2595 H       1  UNL1        0.0000
     79 H          -0.3287    4.3346   -1.8723 H       1  UNL1        0.0000
     80 H          -1.6343    4.4569   -0.7353 H       1  UNL1        0.0000
     81 H          -1.2360    6.6399   -1.8032 H       1  UNL1        0.0000
     82 H           0.4324    6.6782   -1.2351 H       1  UNL1        0.0000
     83 H          -0.8982    6.7762   -0.0777 H       1  UNL1        0.0000
     84 H           1.8669    5.6078    0.1335 H       1  UNL1        0.0000
     85 H           3.7926    4.1523    0.7442 H       1  UNL1        0.0000
     86 H           2.7083    2.7667    0.9045 H       1  UNL1        0.0000
     87 H           2.5427    4.1414    1.9895 H       1  UNL1        0.0000
     88 H           3.3449    4.4888   -1.5740 H       1  UNL1        0.0000
     89 H           1.7514    4.9025   -2.2047 H       1  UNL1        0.0000
     90 H           2.1171    3.2305   -1.7791 H       1  UNL1        0.0000
     91 H           0.1245    5.7281    1.6607 H       1  UNL1        0.0000
     92 H          -2.2729    5.0313    1.3089 H       1  UNL1        0.0000
     93 H          -1.7838    4.8016    2.9876 H       1  UNL1        0.0000
     94 H          -1.8822    3.4104    1.9059 H       1  UNL1        0.0000
     95 H           5.3674   -2.2691    0.2797 H       1  UNL1        0.0000
     96 H           3.8061   -2.3908    1.0623 H       1  UNL1        0.0000
     97 H           4.2828   -2.5352   -1.9774 H       1  UNL1        0.0000
     98 H           2.6967   -2.5895   -1.2168 H       1  UNL1        0.0000
     99 H           3.8706   -3.8759   -0.9089 H       1  UNL1        0.0000
    100 H           4.3759    1.1842    1.4622 H       1  UNL1        0.0000
    101 H           6.7645    0.6847    1.0743 H       1  UNL1        0.0000
    102 H           6.5534   -0.9870    1.6054 H       1  UNL1        0.0000
    103 H           6.3602    0.3374    2.7515 H       1  UNL1        0.0000
    104 H           4.1330   -0.2097   -2.0151 H       1  UNL1        0.0000
    105 H           5.1095    2.0089   -2.1766 H       1  UNL1        0.0000
    106 H           5.4967    2.0343   -0.4542 H       1  UNL1        0.0000
    107 H           3.8105    2.0294   -0.9874 H       1  UNL1        0.0000
    108 H           6.2249   -1.5247   -1.6219 H       1  UNL1        0.0000
    109 H           6.9502   -0.1332   -0.8169 H       1  UNL1        0.0000
    110 H           6.4958   -0.0318   -2.5138 H       1  UNL1        0.0000
    111 H          -5.8209    0.6560    1.3471 H       1  UNL1        0.0000
    112 H           0.4773    4.1553    2.3499 H       1  UNL1        0.0000
    113 H           4.1218   -0.3530    2.2378 H       1  UNL1        0.0000
    114 H          -1.3529   -5.7071    1.2367 H       1  UNL1        0.0000
@<TRIPOS>BOND
     1     1     7    1
     2     1     9    1
     3     1    13    1
     4     1    11    1
     5     1     2    1
     6     3    10    1
     7     4     8    1
     8     5    31    1
     9     5    12    1
    10     6    39    1
    11     6    14    1
    12     7     4    1
    13     8     2    1
    14     9     3    1
    15    10     2    1
    16    11     5    1
    17    12     2    1
    18    13     6    1
    19    14     2    1
    20    15     4    1
    21    15    21    1
    22    16    48    1
    23    16    47    1
    24    16    15    1
    25    17    16    1
    26    18    20    1
    27    18    15    1
    28    19    18    1
    29    19    55    1
    30    20    57    1
    31    20    58    1
    32    21    59    1
    33    21    22    1
    34    22    61    1
    35    22    60    1
    36    23    26    1
    37    23     3    1
    38    23    29    1
    39    24    64    1
    40    24    23    1
    41    25    24    1
    42    25    67    1
    43    26    27    1
    44    27    71    1
    45    27    70    1
    46    28    26    1
    47    28    74    1
    48    29   114    1
    49    29    30    1
    50    29    75    1
    51    30    76    1
    52    31    37    1
    53    32    80    1
    54    32    31    1
    55    33    32    1
    56    33    83    1
    57    34    84    1
    58    34    31    1
    59    34    35    1
    60    35    87    1
    61    36    34    1
    62    37    91    1
    63    37    38    1
    64    37   112    1
    65    38    93    1
    66    39    40    1
    67    39    42    1
    68    40    95    1
    69    40    96    1
    70    41    99    1
    71    41    40    1
    72    42   100    1
    73    42    43    1
    74    42   113    1
    75    43   103    1
    76    44    45    1
    77    44    39    1
    78    45   107    1
    79    45   106    1
    80    46    44    1
    81    46   109    1
    82    49    17    1
    83    50    17    1
    84    51    17    1
    85    52    18    1
    86    53    19    1
    87    54    19    1
    88    56    20    1
    89    62    22    1
    90    63    24    1
    91    65    25    1
    92    66    25    1
    93    68    26    1
    94    69    27    1
    95    72    28    1
    96    73    28    1
    97    77    30    1
    98    78    30    1
    99    79    32    1
   100    81    33    1
   101    82    33    1
   102    85    35    1
   103    86    35    1
   104    88    36    1
   105    89    36    1
   106    90    36    1
   107    92    38    1
   108    94    38    1
   109    97    41    1
   110    98    41    1
   111   101    43    1
   112   102    43    1
   113   104    44    1
   114   105    45    1
   115   108    46    1
   116   110    46    1
   117   111    21    1
