@<TRIPOS>MOLECULE
RhRh_ACyPentyl4_8_sp
 126 141 0 0 0
SMALL
GASTEIGER

@<TRIPOS>ATOM
      1 Rh          0.2585   -0.9489   -2.0095 Rh      1  UNL1        0.0000
      2 Rh          0.4076   -0.1615    0.2441 Rh      1  UNL1        0.0000
      3 C          -1.4138   -2.3668   -0.1166 C.3     1  UNL1        0.0000
      4 C           2.3045   -2.2335   -0.4358 C.3     1  UNL1        0.0000
      5 C           2.0338    1.3002   -1.6422 C.3     1  UNL1        0.0000
      6 C          -1.6552    1.1052   -1.3165 C.3     1  UNL1        0.0000
      7 O          -1.0810   -2.3539   -1.3416 O.3     1  UNL1        0.0000
      8 O          -1.0214   -1.5465    0.7692 O.3     1  UNL1        0.0000
      9 O          -1.2931    0.3766   -2.2900 O.3     1  UNL1        0.0000
     10 O          -1.0535    1.2092   -0.2010 O.3     1  UNL1        0.0000
     11 O           1.8109    1.1874   -0.3944 O.3     1  UNL1        0.0000
     12 O           1.6103    0.5197   -2.5474 O.3     1  UNL1        0.0000
     13 O           1.8635   -1.5747    0.5597 O.3     1  UNL1        0.0000
     14 O           1.8063   -2.2538   -1.6008 O.3     1  UNL1        0.0000
     15 N          -3.7266   -3.0039    0.4131 N.am    1  UNL1        0.0000
     16 N          -3.4632    2.1620   -0.1252 N.am    1  UNL1        0.0000
     17 N           2.5787    3.5690   -1.0723 N.am    1  UNL1        0.0000
     18 N           4.3669   -2.3751    0.8004 N.am    1  UNL1        0.0000
     19 C          -2.3482   -3.5124    0.3528 C.3     1  UNL1        0.0000
     20 C          -1.8226   -4.0725    1.6918 C.3     1  UNL1        0.0000
     21 C          -0.5648   -4.8506    1.2677 C.3     1  UNL1        0.0000
     22 C          -0.8448   -5.3482   -0.1801 C.3     1  UNL1        0.0000
     23 C          -2.2051   -4.7363   -0.5771 C.3     1  UNL1        0.0000
     24 C          -4.3769   -2.5004    1.5602 C.2     1  UNL1        0.0000
     25 C          -5.7009   -1.9986    1.0965 C.ar    1  UNL1        0.0000
     26 C          -6.7381   -1.4304    1.8181 C.ar    1  UNL1        0.0000
     27 C          -7.8519   -0.9820    1.0969 C.ar    1  UNL1        0.0000
     28 C          -7.9077   -1.1039   -0.2972 C.ar    1  UNL1        0.0000
     29 C          -6.8520   -1.6805   -1.0143 C.ar    1  UNL1        0.0000
     30 C          -5.7591   -2.1237   -0.2874 C.ar    1  UNL1        0.0000
     31 C          -4.4804   -2.7218   -0.7537 C.2     1  UNL1        0.0000
     32 C          -2.9622    1.9069   -1.4836 C.3     1  UNL1        0.0000
     33 C          -2.7398    3.1867   -2.3256 C.3     1  UNL1        0.0000
     34 C          -2.6761    2.6615   -3.7641 C.3     1  UNL1        0.0000
     35 C          -3.6926    1.4941   -3.8165 C.3     1  UNL1        0.0000
     36 C          -3.9813    1.1067   -2.3447 C.3     1  UNL1        0.0000
     37 C          -3.3219    3.3406    0.6358 C.2     1  UNL1        0.0000
     38 C          -3.6091    2.9521    2.0480 C.ar    1  UNL1        0.0000
     39 C          -3.6443    3.7310    3.1936 C.ar    1  UNL1        0.0000
     40 C          -3.8895    3.0751    4.4067 C.ar    1  UNL1        0.0000
     41 C          -4.0814    1.6882    4.4552 C.ar    1  UNL1        0.0000
     42 C          -4.0430    0.9064    3.2932 C.ar    1  UNL1        0.0000
     43 C          -3.8121    1.5737    2.0984 C.ar    1  UNL1        0.0000
     44 C          -3.6765    1.0535    0.7187 C.2     1  UNL1        0.0000
     45 C           2.8655    2.5275   -2.0725 C.3     1  UNL1        0.0000
     46 C           4.3662    2.1697   -2.1998 C.3     1  UNL1        0.0000
     47 C           4.4392    1.4220   -3.5360 C.3     1  UNL1        0.0000
     48 C           3.3988    2.1152   -4.4513 C.3     1  UNL1        0.0000
     49 C           2.5099    2.9704   -3.5155 C.3     1  UNL1        0.0000
     50 C           3.3094    3.7952    0.1162 C.2     1  UNL1        0.0000
     51 C           2.3891    4.5262    1.0332 C.ar    1  UNL1        0.0000
     52 C           2.6094    5.0068    2.3146 C.ar    1  UNL1        0.0000
     53 C           1.5241    5.5998    2.9717 C.ar    1  UNL1        0.0000
     54 C           0.2695    5.6969    2.3554 C.ar    1  UNL1        0.0000
     55 C           0.0554    5.2123    1.0591 C.ar    1  UNL1        0.0000
     56 C           1.1426    4.6342    0.4197 C.ar    1  UNL1        0.0000
     57 C           1.2362    3.9839   -0.9087 C.2     1  UNL1        0.0000
     58 C           3.5262   -3.1193   -0.1570 C.3     1  UNL1        0.0000
     59 C           4.3493   -3.5001   -1.4019 C.3     1  UNL1        0.0000
     60 C           5.1776   -4.7033   -0.9234 C.3     1  UNL1        0.0000
     61 C           4.2682   -5.4512    0.0911 C.3     1  UNL1        0.0000
     62 C           3.0724   -4.5082    0.3543 C.3     1  UNL1        0.0000
     63 C           4.6656   -2.6628    2.1492 C.2     1  UNL1        0.0000
     64 C           5.2584   -1.4112    2.7069 C.ar    1  UNL1        0.0000
     65 C           5.7225   -1.1453    3.9850 C.ar    1  UNL1        0.0000
     66 C           6.1763    0.1547    4.2438 C.ar    1  UNL1        0.0000
     67 C           6.1513    1.1422    3.2509 C.ar    1  UNL1        0.0000
     68 C           5.6848    0.8649    1.9594 C.ar    1  UNL1        0.0000
     69 C           5.2519   -0.4304    1.7156 C.ar    1  UNL1        0.0000
     70 C           4.6855   -1.0370    0.4890 C.2     1  UNL1        0.0000
     71 H          -1.6314   -3.2966    2.4276 H       1  UNL1        0.0000
     72 H          -2.5836   -4.7450    2.0978 H       1  UNL1        0.0000
     73 H          -0.3452   -5.6663    1.9611 H       1  UNL1        0.0000
     74 H           0.3000   -4.1811    1.2838 H       1  UNL1        0.0000
     75 H          -0.8695   -6.4389   -0.2461 H       1  UNL1        0.0000
     76 H          -0.0660   -5.0023   -0.8657 H       1  UNL1        0.0000
     77 H          -3.0267   -5.4192   -0.3365 H       1  UNL1        0.0000
     78 H          -2.2769   -4.4701   -1.6277 H       1  UNL1        0.0000
     79 H          -6.6791   -1.3322    2.8966 H       1  UNL1        0.0000
     80 H          -8.6851   -0.5284    1.6245 H       1  UNL1        0.0000
     81 H          -8.7826   -0.7418   -0.8279 H       1  UNL1        0.0000
     82 H          -6.8752   -1.7731   -2.0946 H       1  UNL1        0.0000
     83 H          -3.6189    3.8216   -2.1858 H       1  UNL1        0.0000
     84 H          -1.8619    3.7502   -2.0200 H       1  UNL1        0.0000
     85 H          -1.6690    2.2945   -3.9781 H       1  UNL1        0.0000
     86 H          -2.8971    3.4517   -4.4868 H       1  UNL1        0.0000
     87 H          -4.6179    1.7966   -4.3162 H       1  UNL1        0.0000
     88 H          -3.2868    0.6447   -4.3697 H       1  UNL1        0.0000
     89 H          -3.9128    0.0359   -2.1652 H       1  UNL1        0.0000
     90 H          -4.9797    1.4335   -2.0386 H       1  UNL1        0.0000
     91 H          -4.1610   -0.1722    3.3218 H       1  UNL1        0.0000
     92 H           4.7389    1.5895   -1.3616 H       1  UNL1        0.0000
     93 H           4.9199    3.1121   -2.2457 H       1  UNL1        0.0000
     94 H           5.4511    1.4408   -3.9499 H       1  UNL1        0.0000
     95 H           4.1705    0.3740   -3.3792 H       1  UNL1        0.0000
     96 H           3.8830    2.7499   -5.1994 H       1  UNL1        0.0000
     97 H           2.7998    1.3773   -4.9889 H       1  UNL1        0.0000
     98 H           2.7671    4.0312   -3.5915 H       1  UNL1        0.0000
     99 H           1.4463    2.8723   -3.7184 H       1  UNL1        0.0000
    100 H           3.5820    4.9112    2.7850 H       1  UNL1        0.0000
    101 H           1.6528    5.9834    3.9791 H       1  UNL1        0.0000
    102 H          -0.5546    6.1510    2.8967 H       1  UNL1        0.0000
    103 H          -0.9186    5.2609    0.5848 H       1  UNL1        0.0000
    104 H           4.9393   -2.6640   -1.7766 H       1  UNL1        0.0000
    105 H           3.6456   -3.7919   -2.1857 H       1  UNL1        0.0000
    106 H           5.4947   -5.3358   -1.7567 H       1  UNL1        0.0000
    107 H           6.0862   -4.3518   -0.4240 H       1  UNL1        0.0000
    108 H           4.7992   -5.6496    1.0237 H       1  UNL1        0.0000
    109 H           3.9207   -6.4098   -0.3040 H       1  UNL1        0.0000
    110 H           2.2199   -4.7913   -0.2705 H       1  UNL1        0.0000
    111 H           2.7471   -4.4944    1.3915 H       1  UNL1        0.0000
    112 H           5.6343    1.6329    1.1958 H       1  UNL1        0.0000
    113 O           4.4889   -0.5278   -0.5986 O.2     1  UNL1        0.0000
    114 O           4.4877   -3.7121    2.7342 O.2     1  UNL1        0.0000
    115 O           0.3521    3.7859   -1.7188 O.2     1  UNL1        0.0000
    116 O           4.4558    3.4639    0.3453 O.2     1  UNL1        0.0000
    117 O          -3.6985   -0.0993    0.3362 O.2     1  UNL1        0.0000
    118 O          -3.0253    4.4468    0.2285 O.2     1  UNL1        0.0000
    119 O          -4.1302   -2.9247   -1.8973 O.2     1  UNL1        0.0000
    120 O          -3.9497   -2.4828    2.6983 O.2     1  UNL1        0.0000
    121 H          -3.4803    4.8021    3.1437 H       1  UNL1        0.0000
    122 H          -3.9226    3.6481    5.3281 H       1  UNL1        0.0000
    123 H          -4.2542    1.2099    5.4141 H       1  UNL1        0.0000
    124 H           5.7202   -1.9150    4.7491 H       1  UNL1        0.0000
    125 H           6.5441    0.4055    5.2339 H       1  UNL1        0.0000
    126 H           6.4943    2.1443    3.4878 H       1  UNL1        0.0000
@<TRIPOS>BOND
     1     1    14    1
     2     1     7    1
     3     1     2    1
     4     2    13    1
     5     2     8    1
     6     3    19    1
     7     3     8    1
     8     4    58    1
     9     4    13    1
    10     5    11    1
    11     6    10    1
    12     7     3    1
    13     9     1    1
    14     9     6    1
    15    10     2    1
    16    11     2    1
    17    12     1    1
    18    12     5    1
    19    14     4    1
    20    15    24   am
    21    16    37   am
    22    16    44   am
    23    17    57   am
    24    17    50   am
    25    18    63   am
    26    19    15    1
    27    19    20    1
    28    20    72    1
    29    20    71    1
    30    21    74    1
    31    21    20    1
    32    21    73    1
    33    22    21    1
    34    23    77    1
    35    23    22    1
    36    23    19    1
    37    24   120    2
    38    25    24    1
    39    25    26   ar
    40    26    79    1
    41    27    80    1
    42    27    26   ar
    43    28    27   ar
    44    29    28   ar
    45    29    30   ar
    46    30    25   ar
    47    31    30    1
    48    31    15   am
    49    32     6    1
    50    32    16    1
    51    33    83    1
    52    33    84    1
    53    33    32    1
    54    34    33    1
    55    35    34    1
    56    35    36    1
    57    36    89    1
    58    36    90    1
    59    36    32    1
    60    37    38    1
    61    38    43   ar
    62    38    39   ar
    63    39    40   ar
    64    40    41   ar
    65    40   122    1
    66    41   123    1
    67    42    91    1
    68    42    41   ar
    69    43    42   ar
    70    44    43    1
    71    45     5    1
    72    45    17    1
    73    46    45    1
    74    46    92    1
    75    47    95    1
    76    47    46    1
    77    48    47    1
    78    48    49    1
    79    49    45    1
    80    50   116    2
    81    50    51    1
    82    51    52   ar
    83    52   100    1
    84    52    53   ar
    85    53   101    1
    86    54   102    1
    87    54    53   ar
    88    55    54   ar
    89    56    51   ar
    90    56    55   ar
    91    57    56    1
    92    58    62    1
    93    58    18    1
    94    59    60    1
    95    59    58    1
    96    60   107    1
    97    60    61    1
    98    61    62    1
    99    61   108    1
   100    62   111    1
   101    63    64    1
   102    63   114    2
   103    64    65   ar
   104    65    66   ar
   105    65   124    1
   106    66   125    1
   107    67   126    1
   108    67    66   ar
   109    68    67   ar
   110    69    68   ar
   111    69    64   ar
   112    70    18   am
   113    70    69    1
   114    75    22    1
   115    76    22    1
   116    78    23    1
   117    81    28    1
   118    82    29    1
   119    85    34    1
   120    86    34    1
   121    87    35    1
   122    88    35    1
   123    93    46    1
   124    94    47    1
   125    96    48    1
   126    97    48    1
   127    98    49    1
   128    99    49    1
   129   103    55    1
   130   104    59    1
   131   105    59    1
   132   106    60    1
   133   109    61    1
   134   110    62    1
   135   112    68    1
   136   113    70    2
   137   115    57    2
   138   117    44    2
   139   118    37    2
   140   119    31    2
   141   121    39    1
