@<TRIPOS>MOLECULE
RhRh_PhCy2-O2C4_1_sp
 198 213 0 0 0
SMALL
GASTEIGER

@<TRIPOS>ATOM
      1 Rh         -0.1562    0.1840   -1.1819 Rh      1  UNL1        0.0000
      2 Rh         -0.1246    0.1451    1.1872 Rh      1  UNL1        0.0000
      3 C           2.1065    1.5766    0.0464 C.3     1  UNL1        0.0000
      4 C          -1.6353    2.3477    0.0229 C.3     1  UNL1        0.0000
      5 C           1.3548   -2.0177   -0.0449 C.3     1  UNL1        0.0000
      6 C          -2.2704   -1.4158   -0.0459 C.3     1  UNL1        0.0000
      7 O           1.6991    1.1094   -1.0693 O.3     1  UNL1        0.0000
      8 O           1.4691    1.4229    1.1367 O.3     1  UNL1        0.0000
      9 O           0.7843   -1.6444   -1.1209 O.3     1  UNL1        0.0000
     10 O           1.2200   -1.4168    1.0699 O.3     1  UNL1        0.0000
     11 O          -1.9773   -0.7821   -1.1128 O.3     1  UNL1        0.0000
     12 O          -1.6796   -1.2270    1.0677 O.3     1  UNL1        0.0000
     13 O          -1.1354    1.9856   -1.0940 O.3     1  UNL1        0.0000
     14 O          -1.3946    1.7704    1.1324 O.3     1  UNL1        0.0000
     15 C           3.4569    2.3320    0.1067 C.3     1  UNL1        0.0000
     16 C           3.4389    3.5795   -0.8115 C.ar    1  UNL1        0.0000
     17 C           4.3339    4.6382   -0.5787 C.ar    1  UNL1        0.0000
     18 C           4.3930    5.7467   -1.4213 C.ar    1  UNL1        0.0000
     19 C           3.5592    5.8332   -2.5341 C.ar    1  UNL1        0.0000
     20 C           2.6673    4.7939   -2.7839 C.ar    1  UNL1        0.0000
     21 C           2.6070    3.6872   -1.9366 C.ar    1  UNL1        0.0000
     22 C           2.2572   -3.2779   -0.1004 C.3     1  UNL1        0.0000
     23 C           2.4609   -3.5969   -1.6013 C.ar    1  UNL1        0.0000
     24 C           2.1258   -4.8142   -2.1981 C.ar    1  UNL1        0.0000
     25 C           2.3357   -5.0387   -3.5629 C.ar    1  UNL1        0.0000
     26 C           2.8945   -4.0491   -4.3636 C.ar    1  UNL1        0.0000
     27 C           3.2399   -2.8256   -3.7836 C.ar    1  UNL1        0.0000
     28 C           3.0212   -2.6087   -2.4293 C.ar    1  UNL1        0.0000
     29 C          -3.3760   -2.4988   -0.1412 C.3     1  UNL1        0.0000
     30 C          -4.7408   -1.8411   -0.3873 C.ar    1  UNL1        0.0000
     31 C          -5.0212   -0.5743    0.1318 C.ar    1  UNL1        0.0000
     32 C          -6.2912   -0.0088    0.0429 C.ar    1  UNL1        0.0000
     33 C          -7.3196   -0.7026   -0.5921 C.ar    1  UNL1        0.0000
     34 C          -7.0586   -1.9648   -1.1245 C.ar    1  UNL1        0.0000
     35 C          -5.7877   -2.5291   -1.0178 C.ar    1  UNL1        0.0000
     36 C          -2.5424    3.5956   -0.0022 C.3     1  UNL1        0.0000
     37 C          -3.5149    3.6362    1.1940 C.ar    1  UNL1        0.0000
     38 C          -3.9965    2.4683    1.8048 C.ar    1  UNL1        0.0000
     39 C          -4.9748    2.5039    2.7960 C.ar    1  UNL1        0.0000
     40 C          -5.5042    3.7219    3.2197 C.ar    1  UNL1        0.0000
     41 C          -5.0353    4.8956    2.6356 C.ar    1  UNL1        0.0000
     42 C          -4.0598    4.8504    1.6386 C.ar    1  UNL1        0.0000
     43 C           4.5841    1.3252   -0.4184 C.3     1  UNL1        0.0000
     44 C           4.5226    1.0190   -1.9287 C.3     1  UNL1        0.0000
     45 C           6.0150    1.7962   -0.0817 C.3     1  UNL1        0.0000
     46 C           5.5703   -0.0243   -2.3419 C.3     1  UNL1        0.0000
     47 C           7.0746    0.7660   -0.4948 C.3     1  UNL1        0.0000
     48 C           6.9887    0.4219   -1.9829 C.3     1  UNL1        0.0000
     49 C           3.7635    2.7505    1.5929 C.3     1  UNL1        0.0000
     50 C           2.7924    3.7854    2.1924 C.3     1  UNL1        0.0000
     51 C           3.9749    1.5894    2.5852 C.3     1  UNL1        0.0000
     52 C           3.3122    4.3099    3.5365 C.3     1  UNL1        0.0000
     53 C           4.4888    2.1122    3.9337 C.3     1  UNL1        0.0000
     54 C           3.5471    3.1652    4.5284 C.3     1  UNL1        0.0000
     55 C          -1.5785    4.8410    0.0238 C.3     1  UNL1        0.0000
     56 C          -0.6559    4.8494    1.2543 C.3     1  UNL1        0.0000
     57 C          -0.7410    5.0691   -1.2452 C.3     1  UNL1        0.0000
     58 C           0.1117    6.1727    1.3620 C.3     1  UNL1        0.0000
     59 C          -0.0005    6.4107   -1.1545 C.3     1  UNL1        0.0000
     60 C           0.9002    6.4748    0.0821 C.3     1  UNL1        0.0000
     61 C          -3.3657    3.5464   -1.3443 C.3     1  UNL1        0.0000
     62 C          -4.2637    2.3053   -1.4351 C.3     1  UNL1        0.0000
     63 C          -4.2015    4.8062   -1.6191 C.3     1  UNL1        0.0000
     64 C          -4.9598    2.2004   -2.7951 C.3     1  UNL1        0.0000
     65 C          -4.8898    4.7177   -2.9894 C.3     1  UNL1        0.0000
     66 C          -5.7679    3.4658   -3.1016 C.3     1  UNL1        0.0000
     67 C           1.4970   -4.4550    0.6326 C.3     1  UNL1        0.0000
     68 C           2.3803   -5.6901    0.9116 C.3     1  UNL1        0.0000
     69 C           0.7002   -4.1065    1.9109 C.3     1  UNL1        0.0000
     70 C           1.5388   -6.8912    1.3587 C.3     1  UNL1        0.0000
     71 C          -0.1123   -5.3136    2.4042 C.3     1  UNL1        0.0000
     72 C           0.7479   -6.5591    2.6267 C.3     1  UNL1        0.0000
     73 C           3.6738   -2.8720    0.5044 C.3     1  UNL1        0.0000
     74 C           3.7455   -2.6669    2.0301 C.3     1  UNL1        0.0000
     75 C           4.8407   -3.7850    0.0600 C.3     1  UNL1        0.0000
     76 C           5.1041   -2.0791    2.4390 C.3     1  UNL1        0.0000
     77 C           6.1964   -3.1947    0.4667 C.3     1  UNL1        0.0000
     78 C           6.2741   -2.9510    1.9766 C.3     1  UNL1        0.0000
     79 C          -2.9981   -3.4676   -1.3225 C.3     1  UNL1        0.0000
     80 C          -3.0379   -2.8787   -2.7471 C.3     1  UNL1        0.0000
     81 C          -1.6562   -4.1863   -1.1166 C.3     1  UNL1        0.0000
     82 C          -2.8718   -3.9933   -3.7899 C.3     1  UNL1        0.0000
     83 C          -1.4761   -5.3069   -2.1483 C.3     1  UNL1        0.0000
     84 C          -1.5637   -4.7661   -3.5786 C.3     1  UNL1        0.0000
     85 C          -3.4359   -3.2874    1.2332 C.3     1  UNL1        0.0000
     86 C          -4.0118   -2.4621    2.4029 C.3     1  UNL1        0.0000
     87 C          -4.1980   -4.6247    1.1616 C.3     1  UNL1        0.0000
     88 C          -3.8787   -3.2151    3.7314 C.3     1  UNL1        0.0000
     89 C          -4.1233   -5.3921    2.4911 C.3     1  UNL1        0.0000
     90 C          -4.6147   -4.5567    3.6764 C.3     1  UNL1        0.0000
     91 H           4.9955    4.6173    0.2768 H       1  UNL1        0.0000
     92 H           5.0947    6.5450   -1.1997 H       1  UNL1        0.0000
     93 H           3.6022    6.6961   -3.1912 H       1  UNL1        0.0000
     94 H           2.0030    4.8374   -3.6416 H       1  UNL1        0.0000
     95 H           1.9107    2.8950   -2.1663 H       1  UNL1        0.0000
     96 H           1.6899   -5.6146   -1.6177 H       1  UNL1        0.0000
     97 H           2.0558   -5.9964   -3.9911 H       1  UNL1        0.0000
     98 H           3.0581   -4.2230   -5.4225 H       1  UNL1        0.0000
     99 H           3.6745   -2.0346   -4.3875 H       1  UNL1        0.0000
    100 H           3.2677   -1.6408   -2.0130 H       1  UNL1        0.0000
    101 H          -4.2373   -0.0229    0.6311 H       1  UNL1        0.0000
    102 H          -6.4681    0.9702    0.4760 H       1  UNL1        0.0000
    103 H          -8.3110   -0.2673   -0.6696 H       1  UNL1        0.0000
    104 H          -7.8472   -2.5194   -1.6243 H       1  UNL1        0.0000
    105 H          -3.5855    1.5133    1.5219 H       1  UNL1        0.0000
    106 H          -5.3173    1.5714    3.2349 H       1  UNL1        0.0000
    107 H          -6.2649    3.7553    3.9936 H       1  UNL1        0.0000
    108 H          -5.4283    5.8578    2.9502 H       1  UNL1        0.0000
    109 H          -3.7344    5.7880    1.2067 H       1  UNL1        0.0000
    110 H           4.4138    0.3798    0.1143 H       1  UNL1        0.0000
    111 H           4.7044    1.9451   -2.4862 H       1  UNL1        0.0000
    112 H           3.5254    0.6791   -2.2076 H       1  UNL1        0.0000
    113 H           6.2077    2.7394   -0.6069 H       1  UNL1        0.0000
    114 H           6.1319    1.9966    0.9846 H       1  UNL1        0.0000
    115 H           5.4888   -0.2179   -3.4180 H       1  UNL1        0.0000
    116 H           5.3596   -0.9785   -1.8424 H       1  UNL1        0.0000
    117 H           8.0709    1.1486   -0.2443 H       1  UNL1        0.0000
    118 H           6.9352   -0.1469    0.0993 H       1  UNL1        0.0000
    119 H           7.7161   -0.3568   -2.2402 H       1  UNL1        0.0000
    120 H           7.2507    1.3097   -2.5747 H       1  UNL1        0.0000
    121 H           4.7304    3.2576    1.5478 H       1  UNL1        0.0000
    122 H           1.8128    3.3278    2.3415 H       1  UNL1        0.0000
    123 H           2.6564    4.6192    1.5009 H       1  UNL1        0.0000
    124 H           3.0373    1.0502    2.7359 H       1  UNL1        0.0000
    125 H           4.6920    0.8679    2.1890 H       1  UNL1        0.0000
    126 H           2.6021    5.0352    3.9510 H       1  UNL1        0.0000
    127 H           4.2561    4.8518    3.3789 H       1  UNL1        0.0000
    128 H           4.6168    1.2748    4.6295 H       1  UNL1        0.0000
    129 H           5.4848    2.5578    3.7954 H       1  UNL1        0.0000
    130 H           3.9496    3.5495    5.4730 H       1  UNL1        0.0000
    131 H           2.5832    2.6927    4.7641 H       1  UNL1        0.0000
    132 H          -2.2302    5.7156    0.1047 H       1  UNL1        0.0000
    133 H           0.0588    4.0235    1.1732 H       1  UNL1        0.0000
    134 H          -1.2360    4.6698    2.1645 H       1  UNL1        0.0000
    135 H          -0.0184    4.2566   -1.3665 H       1  UNL1        0.0000
    136 H          -1.3708    5.0663   -2.1386 H       1  UNL1        0.0000
    137 H           0.7846    6.1431    2.2268 H       1  UNL1        0.0000
    138 H          -0.6027    6.9869    1.5504 H       1  UNL1        0.0000
    139 H           0.5951    6.5679   -2.0591 H       1  UNL1        0.0000
    140 H          -0.7392    7.2245   -1.1154 H       1  UNL1        0.0000
    141 H           1.3848    7.4556    0.1533 H       1  UNL1        0.0000
    142 H           1.7019    5.7383   -0.0365 H       1  UNL1        0.0000
    143 H          -2.6258    3.4572   -2.1438 H       1  UNL1        0.0000
    144 H          -5.0260    2.3565   -0.6519 H       1  UNL1        0.0000
    145 H          -3.6831    1.3968   -1.2579 H       1  UNL1        0.0000
    146 H          -4.9652    4.9173   -0.8402 H       1  UNL1        0.0000
    147 H          -3.5800    5.7070   -1.5830 H       1  UNL1        0.0000
    148 H          -5.6064    1.3159   -2.8065 H       1  UNL1        0.0000
    149 H          -4.2039    2.0513   -3.5789 H       1  UNL1        0.0000
    150 H          -5.4861    5.6209   -3.1646 H       1  UNL1        0.0000
    151 H          -4.1223    4.6916   -3.7758 H       1  UNL1        0.0000
    152 H          -6.2205    3.4045   -4.0982 H       1  UNL1        0.0000
    153 H          -6.5963    3.5442   -2.3833 H       1  UNL1        0.0000
    154 H           0.7350   -4.7729   -0.0856 H       1  UNL1        0.0000
    155 H           3.0936   -5.4558    1.7084 H       1  UNL1        0.0000
    156 H           2.9720   -5.9560    0.0338 H       1  UNL1        0.0000
    157 H           1.3750   -3.7733    2.7051 H       1  UNL1        0.0000
    158 H           0.0130   -3.2805    1.7265 H       1  UNL1        0.0000
    159 H           2.1882   -7.7585    1.5236 H       1  UNL1        0.0000
    160 H           0.8408   -7.1691    0.5557 H       1  UNL1        0.0000
    161 H          -0.6429   -5.0406    3.3237 H       1  UNL1        0.0000
    162 H          -0.8864   -5.5519    1.6622 H       1  UNL1        0.0000
    163 H           0.1230   -7.4076    2.9284 H       1  UNL1        0.0000
    164 H           1.4517   -6.3757    3.4505 H       1  UNL1        0.0000
    165 H           3.8874   -1.8883    0.0627 H       1  UNL1        0.0000
    166 H           3.6127   -3.6269    2.5416 H       1  UNL1        0.0000
    167 H           2.9428   -2.0093    2.3622 H       1  UNL1        0.0000
    168 H           4.7416   -4.7707    0.5214 H       1  UNL1        0.0000
    169 H           4.8194   -3.9395   -1.0199 H       1  UNL1        0.0000
    170 H           5.1330   -1.9352    3.5253 H       1  UNL1        0.0000
    171 H           5.2087   -1.0826    1.9922 H       1  UNL1        0.0000
    172 H           7.0010   -3.8650    0.1429 H       1  UNL1        0.0000
    173 H           6.3507   -2.2458   -0.0634 H       1  UNL1        0.0000
    174 H           7.2296   -2.4842    2.2434 H       1  UNL1        0.0000
    175 H           6.2376   -3.9166    2.5002 H       1  UNL1        0.0000
    176 H          -3.7676   -4.2450   -1.3024 H       1  UNL1        0.0000
    177 H          -2.2300   -2.1548   -2.8673 H       1  UNL1        0.0000
    178 H          -3.9716   -2.3359   -2.9152 H       1  UNL1        0.0000
    179 H          -0.8390   -3.4648   -1.2228 H       1  UNL1        0.0000
    180 H          -1.5900   -4.6041   -0.1099 H       1  UNL1        0.0000
    181 H          -2.9011   -3.5637   -4.7980 H       1  UNL1        0.0000
    182 H          -3.7197   -4.6907   -3.7229 H       1  UNL1        0.0000
    183 H          -0.5180   -5.8125   -1.9916 H       1  UNL1        0.0000
    184 H          -2.2585   -6.0640   -1.9943 H       1  UNL1        0.0000
    185 H          -1.4787   -5.5849   -4.3029 H       1  UNL1        0.0000
    186 H          -0.7109   -4.0977   -3.7562 H       1  UNL1        0.0000
    187 H          -2.3981   -3.5143    1.4954 H       1  UNL1        0.0000
    188 H          -5.0729   -2.2598    2.2175 H       1  UNL1        0.0000
    189 H          -3.5071   -1.4978    2.4727 H       1  UNL1        0.0000
    190 H          -5.2484   -4.4302    0.9097 H       1  UNL1        0.0000
    191 H          -3.7979   -5.2695    0.3750 H       1  UNL1        0.0000
    192 H          -4.2682   -2.5978    4.5494 H       1  UNL1        0.0000
    193 H          -2.8148   -3.3880    3.9475 H       1  UNL1        0.0000
    194 H          -4.7005   -6.3207    2.4104 H       1  UNL1        0.0000
    195 H          -3.0812   -5.6875    2.6702 H       1  UNL1        0.0000
    196 H          -4.4858   -5.1116    4.6132 H       1  UNL1        0.0000
    197 H          -5.6918   -4.3687    3.5659 H       1  UNL1        0.0000
    198 H          -5.6213   -3.5145   -1.4351 H       1  UNL1        0.0000
@<TRIPOS>BOND
     1     1     9    1
     2     1    11    1
     3     1    13    1
     4     1     7    1
     5     1     2    1
     6     3    15    1
     7     3     8    1
     8     4    14    1
     9     5    10    1
    10     6    12    1
    11     7     3    1
    12     8     2    1
    13     9     5    1
    14    10     2    1
    15    11     6    1
    16    12     2    1
    17    13     4    1
    18    14     2    1
    19    15    49    1
    20    16    17   ar
    21    16    15    1
    22    17    91    1
    23    18    92    1
    24    18    17   ar
    25    19    18   ar
    26    20    19   ar
    27    20    21   ar
    28    21    16   ar
    29    22     5    1
    30    22    73    1
    31    22    67    1
    32    23    22    1
    33    24    96    1
    34    24    23   ar
    35    25    24   ar
    36    26    27   ar
    37    26    25   ar
    38    27    28   ar
    39    28   100    1
    40    28    23   ar
    41    29     6    1
    42    29    85    1
    43    30    29    1
    44    30    31   ar
    45    31   101    1
    46    32    31   ar
    47    32   102    1
    48    33    32   ar
    49    34    35   ar
    50    34    33   ar
    51    35    30   ar
    52    36     4    1
    53    36    55    1
    54    36    37    1
    55    37    42   ar
    56    37    38   ar
    57    38    39   ar
    58    39    40   ar
    59    39   106    1
    60    40   107    1
    61    41   108    1
    62    41    40   ar
    63    42    41   ar
    64    43    45    1
    65    43    15    1
    66    43   110    1
    67    44    43    1
    68    45   114    1
    69    46    48    1
    70    46    44    1
    71    46   116    1
    72    47   117    1
    73    47    45    1
    74    47   118    1
    75    48    47    1
    76    49    50    1
    77    49    51    1
    78    50   122    1
    79    50    52    1
    80    51   124    1
    81    51    53    1
    82    52   126    1
    83    52    54    1
    84    53    54    1
    85    53   128    1
    86    54   131    1
    87    54   130    1
    88    55   132    1
    89    55    56    1
    90    56    58    1
    91    56   134    1
    92    57    59    1
    93    57    55    1
    94    58   138    1
    95    58   137    1
    96    59   140    1
    97    59    60    1
    98    60   141    1
    99    60    58    1
   100    61    36    1
   101    62    61    1
   102    62   145    1
   103    62   144    1
   104    63   147    1
   105    63    61    1
   106    63   146    1
   107    64    62    1
   108    65    63    1
   109    66    65    1
   110    66    64    1
   111    66   153    1
   112    67    68    1
   113    67    69    1
   114    68    70    1
   115    68   155    1
   116    69    71    1
   117    69   157    1
   118    70   159    1
   119    70    72    1
   120    71    72    1
   121    71   161    1
   122    72   163    1
   123    72   164    1
   124    73    74    1
   125    74   167    1
   126    74    76    1
   127    74   166    1
   128    75    77    1
   129    75    73    1
   130    75   168    1
   131    76   170    1
   132    77    78    1
   133    78   174    1
   134    78    76    1
   135    78   175    1
   136    79   176    1
   137    79    81    1
   138    79    29    1
   139    80    79    1
   140    81   180    1
   141    82   182    1
   142    82    84    1
   143    82    80    1
   144    83   184    1
   145    83   183    1
   146    83    81    1
   147    84    83    1
   148    85   187    1
   149    85    86    1
   150    86   189    1
   151    86    88    1
   152    87    85    1
   153    87    89    1
   154    88   193    1
   155    88   192    1
   156    89   195    1
   157    89    90    1
   158    90    88    1
   159    90   196    1
   160    93    19    1
   161    94    20    1
   162    95    21    1
   163    97    25    1
   164    98    26    1
   165    99    27    1
   166   103    33    1
   167   104    34    1
   168   105    38    1
   169   109    42    1
   170   111    44    1
   171   112    44    1
   172   113    45    1
   173   115    46    1
   174   119    48    1
   175   120    48    1
   176   121    49    1
   177   123    50    1
   178   125    51    1
   179   127    52    1
   180   129    53    1
   181   133    56    1
   182   135    57    1
   183   136    57    1
   184   139    59    1
   185   142    60    1
   186   143    61    1
   187   148    64    1
   188   149    64    1
   189   150    65    1
   190   151    65    1
   191   152    66    1
   192   154    67    1
   193   156    68    1
   194   158    69    1
   195   160    70    1
   196   162    71    1
   197   165    73    1
   198   169    75    1
   199   171    76    1
   200   172    77    1
   201   173    77    1
   202   177    80    1
   203   178    80    1
   204   179    81    1
   205   181    82    1
   206   185    84    1
   207   186    84    1
   208   188    86    1
   209   190    87    1
   210   191    87    1
   211   194    89    1
   212   197    90    1
   213   198    35    1
