@<TRIPOS>MOLECULE
RhRh_ACyPentyl4_29_sp
 126 141 0 0 0
SMALL
GASTEIGER

@<TRIPOS>ATOM
      1 Rh         -0.1794   -0.5279   -1.6571 Rh      1  UNL1        0.0000
      2 Rh          0.6419   -0.2583    0.5734 Rh      1  UNL1        0.0000
      3 C           1.8998    1.4713   -1.3732 C.3     1  UNL1        0.0000
      4 C          -1.5590    1.4741   -0.1070 C.3     1  UNL1        0.0000
      5 C          -1.4562   -2.2168    0.3196 C.3     1  UNL1        0.0000
      6 C           2.0748   -2.2117   -1.0037 C.3     1  UNL1        0.0000
      7 O           1.1582    0.9278   -2.2499 O.3     1  UNL1        0.0000
      8 O           1.9711    1.1401   -0.1494 O.3     1  UNL1        0.0000
      9 O           1.2654   -1.9747   -1.9514 O.3     1  UNL1        0.0000
     10 O           2.0057   -1.7414    0.1752 O.3     1  UNL1        0.0000
     11 O          -0.7068   -1.6589    1.1784 O.3     1  UNL1        0.0000
     12 O          -1.4819   -1.9596   -0.9234 O.3     1  UNL1        0.0000
     13 O          -0.7704    1.2072    0.8495 O.3     1  UNL1        0.0000
     14 O          -1.5224    0.9723   -1.2750 O.3     1  UNL1        0.0000
     15 N           3.2920    3.3074   -0.6270 N.am    1  UNL1        0.0000
     16 N           4.3366   -2.7731   -0.3922 N.am    1  UNL1        0.0000
     17 N          -3.5503   -2.6758    1.4983 N.am    1  UNL1        0.0000
     18 N          -3.8267    2.2192   -0.5200 N.am    1  UNL1        0.0000
     19 C           2.7639    2.6588   -1.8369 C.3     1  UNL1        0.0000
     20 C           1.9238    3.6354   -2.7086 C.3     1  UNL1        0.0000
     21 C           2.0006    3.0971   -4.1559 C.3     1  UNL1        0.0000
     22 C           3.1363    2.0428   -4.1687 C.3     1  UNL1        0.0000
     23 C           3.8662    2.1995   -2.8279 C.3     1  UNL1        0.0000
     24 C           2.4062    3.8861    0.3104 C.2     1  UNL1        0.0000
     25 C           3.1717    4.0601    1.5705 C.ar    1  UNL1        0.0000
     26 C           2.7826    4.5992    2.7871 C.ar    1  UNL1        0.0000
     27 C           3.7275    4.5944    3.8201 C.ar    1  UNL1        0.0000
     28 C           5.0114    4.0687    3.6240 C.ar    1  UNL1        0.0000
     29 C           5.3920    3.5306    2.3889 C.ar    1  UNL1        0.0000
     30 C           4.4464    3.5362    1.3751 C.ar    1  UNL1        0.0000
     31 C           4.5331    3.0167   -0.0180 C.2     1  UNL1        0.0000
     32 C           3.2455   -3.1707   -1.2876 C.3     1  UNL1        0.0000
     33 C           2.7773   -4.6380   -1.1130 C.3     1  UNL1        0.0000
     34 C           2.0087   -4.9246   -2.4081 C.3     1  UNL1        0.0000
     35 C           2.7882   -4.1717   -3.5126 C.3     1  UNL1        0.0000
     36 C           3.6661   -3.1256   -2.7813 C.3     1  UNL1        0.0000
     37 C           4.8338   -1.4545   -0.4794 C.2     1  UNL1        0.0000
     38 C           5.6628   -1.2317    0.7315 C.ar    1  UNL1        0.0000
     39 C           6.4117   -0.1290    1.1178 C.ar    1  UNL1        0.0000
     40 C           7.0646   -0.2090    2.3543 C.ar    1  UNL1        0.0000
     41 C           6.9622   -1.3496    3.1610 C.ar    1  UNL1        0.0000
     42 C           6.1997   -2.4531    2.7586 C.ar    1  UNL1        0.0000
     43 C           5.5573   -2.3672    1.5335 C.ar    1  UNL1        0.0000
     44 C           4.6593   -3.3484    0.8588 C.2     1  UNL1        0.0000
     45 C          -2.3904   -3.3287    0.8670 C.3     1  UNL1        0.0000
     46 C          -2.7505   -4.3344   -0.2448 C.3     1  UNL1        0.0000
     47 C          -1.4676   -5.1789   -0.4096 C.3     1  UNL1        0.0000
     48 C          -0.6822   -5.0319    0.9249 C.3     1  UNL1        0.0000
     49 C          -1.5978   -4.2174    1.8522 C.3     1  UNL1        0.0000
     50 C          -4.7987   -2.4550    0.8804 C.2     1  UNL1        0.0000
     51 C          -5.5860   -1.6084    1.8204 C.ar    1  UNL1        0.0000
     52 C          -6.8808   -1.1233    1.7175 C.ar    1  UNL1        0.0000
     53 C          -7.3418   -0.2965    2.7491 C.ar    1  UNL1        0.0000
     54 C          -6.5274    0.0169    3.8446 C.ar    1  UNL1        0.0000
     55 C          -5.2274   -0.4924    3.9448 C.ar    1  UNL1        0.0000
     56 C          -4.7822   -1.3042    2.9135 C.ar    1  UNL1        0.0000
     57 C          -3.4679   -1.9755    2.7322 C.2     1  UNL1        0.0000
     58 C          -2.5654    2.6080    0.1208 C.3     1  UNL1        0.0000
     59 C          -1.9028    3.8875   -0.5120 C.3     1  UNL1        0.0000
     60 C          -1.9548    4.9579    0.5850 C.3     1  UNL1        0.0000
     61 C          -1.8383    4.1437    1.8812 C.3     1  UNL1        0.0000
     62 C          -2.7636    2.9476    1.6223 C.3     1  UNL1        0.0000
     63 C          -4.2996    0.8987   -0.4487 C.2     1  UNL1        0.0000
     64 C          -5.5760    0.8665   -1.2101 C.ar    1  UNL1        0.0000
     65 C          -6.4013   -0.1955   -1.5517 C.ar    1  UNL1        0.0000
     66 C          -7.5644    0.1097   -2.2722 C.ar    1  UNL1        0.0000
     67 C          -7.8777    1.4270   -2.6271 C.ar    1  UNL1        0.0000
     68 C          -7.0300    2.4884   -2.2841 C.ar    1  UNL1        0.0000
     69 C          -5.8787    2.1781   -1.5791 C.ar    1  UNL1        0.0000
     70 C          -4.7837    3.0728   -1.1016 C.2     1  UNL1        0.0000
     71 H           0.9042    3.7406   -2.3436 H       1  UNL1        0.0000
     72 H           2.4025    4.6158   -2.6280 H       1  UNL1        0.0000
     73 H           2.1994    3.9162   -4.8534 H       1  UNL1        0.0000
     74 H           1.0516    2.6437   -4.4489 H       1  UNL1        0.0000
     75 H           3.8265    2.1750   -5.0066 H       1  UNL1        0.0000
     76 H           2.7138    1.0388   -4.2469 H       1  UNL1        0.0000
     77 H           4.5997    3.0085   -2.8825 H       1  UNL1        0.0000
     78 H           4.3853    1.3037   -2.4958 H       1  UNL1        0.0000
     79 H           1.7834    4.9979    2.9253 H       1  UNL1        0.0000
     80 H           3.4628    5.0010    4.7909 H       1  UNL1        0.0000
     81 H           5.7196    4.0774    4.4464 H       1  UNL1        0.0000
     82 H           6.3815    3.1182    2.2254 H       1  UNL1        0.0000
     83 H           3.6698   -5.2646   -1.0441 H       1  UNL1        0.0000
     84 H           2.2021   -4.7990   -0.2018 H       1  UNL1        0.0000
     85 H           0.9940   -4.5261   -2.3355 H       1  UNL1        0.0000
     86 H           1.9259   -5.9982   -2.5970 H       1  UNL1        0.0000
     87 H           3.4172   -4.8576   -4.0879 H       1  UNL1        0.0000
     88 H           2.1045   -3.6913   -4.2156 H       1  UNL1        0.0000
     89 H           3.5726   -2.1214   -3.1884 H       1  UNL1        0.0000
     90 H           4.7230   -3.4034   -2.8222 H       1  UNL1        0.0000
     91 H           6.1032   -3.3397    3.3756 H       1  UNL1        0.0000
     92 H          -3.0726   -3.8487   -1.1616 H       1  UNL1        0.0000
     93 H          -3.5786   -4.9495    0.1155 H       1  UNL1        0.0000
     94 H          -1.7140   -6.2205   -0.6313 H       1  UNL1        0.0000
     95 H          -0.8762   -4.8054   -1.2488 H       1  UNL1        0.0000
     96 H          -0.4089   -5.9932    1.3665 H       1  UNL1        0.0000
     97 H           0.2499   -4.4816    0.7639 H       1  UNL1        0.0000
     98 H          -2.3221   -4.8641    2.3595 H       1  UNL1        0.0000
     99 H          -1.0670   -3.6388    2.6028 H       1  UNL1        0.0000
    100 H          -7.5044   -1.3670    0.8655 H       1  UNL1        0.0000
    101 H          -8.3469    0.1104    2.6999 H       1  UNL1        0.0000
    102 H          -6.9132    0.6632    4.6266 H       1  UNL1        0.0000
    103 H          -4.5838   -0.2633    4.7872 H       1  UNL1        0.0000
    104 H          -2.3933    4.1789   -1.4377 H       1  UNL1        0.0000
    105 H          -0.8594    3.6606   -0.7331 H       1  UNL1        0.0000
    106 H          -1.1529    5.6909    0.4685 H       1  UNL1        0.0000
    107 H          -2.9172    5.4794    0.5468 H       1  UNL1        0.0000
    108 H          -2.1225    4.7047    2.7768 H       1  UNL1        0.0000
    109 H          -0.8069    3.7970    2.0038 H       1  UNL1        0.0000
    110 H          -2.5741    2.0831    2.2593 H       1  UNL1        0.0000
    111 H          -3.8068    3.2527    1.7542 H       1  UNL1        0.0000
    112 H          -7.2533    3.5133   -2.5598 H       1  UNL1        0.0000
    113 O          -4.7280    4.2843   -1.1747 O.2     1  UNL1        0.0000
    114 O          -3.7435    0.0067    0.1648 O.2     1  UNL1        0.0000
    115 O          -2.5213   -1.9517    3.4880 O.2     1  UNL1        0.0000
    116 O          -5.1667   -2.8894   -0.1945 O.2     1  UNL1        0.0000
    117 O           4.2833   -4.4189    1.2877 O.2     1  UNL1        0.0000
    118 O           4.5714   -0.6823   -1.3807 O.2     1  UNL1        0.0000
    119 O           5.4860    2.4672   -0.5331 O.2     1  UNL1        0.0000
    120 O           1.2431    4.1698    0.1038 O.2     1  UNL1        0.0000
    121 H           6.4653    0.7553    0.4926 H       1  UNL1        0.0000
    122 H           7.6620    0.6301    2.6979 H       1  UNL1        0.0000
    123 H           7.4792   -1.3752    4.1151 H       1  UNL1        0.0000
    124 H          -6.1461   -1.2146   -1.2803 H       1  UNL1        0.0000
    125 H          -8.2345   -0.6927   -2.5645 H       1  UNL1        0.0000
    126 H          -8.7881    1.6268   -3.1835 H       1  UNL1        0.0000
@<TRIPOS>BOND
     1     1    14    1
     2     1    12    1
     3     1     2    1
     4     2    13    1
     5     2    11    1
     6     3     8    1
     7     4    58    1
     8     4    13    1
     9     5    45    1
    10     5    11    1
    11     6    10    1
    12     7     1    1
    13     7     3    1
    14     8     2    1
    15     9     1    1
    16     9     6    1
    17    10     2    1
    18    12     5    1
    19    14     4    1
    20    15    31   am
    21    15    24   am
    22    16    44   am
    23    17    57   am
    24    18    63   am
    25    18    58    1
    26    19     3    1
    27    19    15    1
    28    20    72    1
    29    20    71    1
    30    20    19    1
    31    21    20    1
    32    22    21    1
    33    22    23    1
    34    23    78    1
    35    23    19    1
    36    24    25    1
    37    25    26   ar
    38    26    79    1
    39    26    27   ar
    40    27    80    1
    41    28    27   ar
    42    28    81    1
    43    29    28   ar
    44    30    25   ar
    45    30    29   ar
    46    31    30    1
    47    32    33    1
    48    32     6    1
    49    32    16    1
    50    33    83    1
    51    33    84    1
    52    34    85    1
    53    34    33    1
    54    35    36    1
    55    35    34    1
    56    36    32    1
    57    37    16   am
    58    37    38    1
    59    38    39   ar
    60    38    43   ar
    61    39    40   ar
    62    40   122    1
    63    40    41   ar
    64    41   123    1
    65    42    41   ar
    66    42    91    1
    67    43    42   ar
    68    44   117    2
    69    44    43    1
    70    45    17    1
    71    45    49    1
    72    46    93    1
    73    46    45    1
    74    47    46    1
    75    47    48    1
    76    48    96    1
    77    48    49    1
    78    49    98    1
    79    49    99    1
    80    50    17   am
    81    50    51    1
    82    51    56   ar
    83    52    51   ar
    84    52    53   ar
    85    53    54   ar
    86    54    55   ar
    87    54   102    1
    88    55   103    1
    89    56    55   ar
    90    57    56    1
    91    57   115    2
    92    58    62    1
    93    59    58    1
    94    59    60    1
    95    60    61    1
    96    61   109    1
    97    61   108    1
    98    62   111    1
    99    62    61    1
   100    62   110    1
   101    63   114    2
   102    64    63    1
   103    65   124    1
   104    65    64   ar
   105    66    65   ar
   106    67    68   ar
   107    67    66   ar
   108    68    69   ar
   109    69    64   ar
   110    69    70    1
   111    70    18   am
   112    73    21    1
   113    74    21    1
   114    75    22    1
   115    76    22    1
   116    77    23    1
   117    82    29    1
   118    86    34    1
   119    87    35    1
   120    88    35    1
   121    89    36    1
   122    90    36    1
   123    92    46    1
   124    94    47    1
   125    95    47    1
   126    97    48    1
   127   100    52    1
   128   101    53    1
   129   104    59    1
   130   105    59    1
   131   106    60    1
   132   107    60    1
   133   112    68    1
   134   113    70    2
   135   116    50    2
   136   118    37    2
   137   119    31    2
   138   120    24    2
   139   121    39    1
   140   125    66    1
   141   126    67    1
