@<TRIPOS>MOLECULE
RhRh_triPh-O2C4_6_sp
 150 165 0 0 0
SMALL
GASTEIGER

@<TRIPOS>ATOM
      1 Rh         -0.0124   -0.0007    1.1879 Rh      1  UNL1        0.0000
      2 Rh         -0.0240   -0.0023   -1.1992 Rh      1  UNL1        0.0000
      3 C           2.0219    1.6691    0.0087 C.3     1  UNL1        0.0000
      4 C          -1.7199    2.0097   -0.0258 C.3     1  UNL1        0.0000
      5 C          -2.0535   -1.6724    0.0268 C.3     1  UNL1        0.0000
      6 C           1.6592   -2.0322   -0.0308 C.3     1  UNL1        0.0000
      7 O          -1.3337    1.5828    1.1056 O.3     1  UNL1        0.0000
      8 O          -1.2985    1.5882   -1.1482 O.3     1  UNL1        0.0000
      9 O          -1.6018   -1.2807    1.1476 O.3     1  UNL1        0.0000
     10 O          -1.6335   -1.2825   -1.1055 O.3     1  UNL1        0.0000
     11 O           1.2958   -1.5897    1.1010 O.3     1  UNL1        0.0000
     12 O           1.2221   -1.6178   -1.1505 O.3     1  UNL1        0.0000
     13 O           1.5757    1.2734    1.1320 O.3     1  UNL1        0.0000
     14 O           1.5879    1.2914   -1.1224 O.3     1  UNL1        0.0000
     15 C          -2.7812    3.1355   -0.0834 C.3     1  UNL1        0.0000
     16 C          -3.7683    2.8076   -1.2246 C.ar    1  UNL1        0.0000
     17 C          -4.3642    3.8252   -1.9734 C.ar    1  UNL1        0.0000
     18 C          -5.3179    3.5276   -2.9488 C.ar    1  UNL1        0.0000
     19 C          -5.6894    2.2071   -3.1919 C.ar    1  UNL1        0.0000
     20 C          -5.1030    1.1813   -2.4484 C.ar    1  UNL1        0.0000
     21 C          -4.1560    1.4830   -1.4738 C.ar    1  UNL1        0.0000
     22 C          -3.5088    3.2023    1.2733 C.ar    1  UNL1        0.0000
     23 C          -4.8676    2.9062    1.4017 C.ar    1  UNL1        0.0000
     24 C          -5.4965    2.9627    2.6498 C.ar    1  UNL1        0.0000
     25 C          -4.7745    3.3126    3.7871 C.ar    1  UNL1        0.0000
     26 C          -3.4157    3.6169    3.6681 C.ar    1  UNL1        0.0000
     27 C          -2.7936    3.5650    2.4259 C.ar    1  UNL1        0.0000
     28 C          -2.0402    4.4634   -0.3898 C.ar    1  UNL1        0.0000
     29 C          -2.5161    5.6699    0.1387 C.ar    1  UNL1        0.0000
     30 C          -1.9234    6.8849   -0.2057 C.ar    1  UNL1        0.0000
     31 C          -0.8368    6.9154   -1.0775 C.ar    1  UNL1        0.0000
     32 C          -0.3534    5.7204   -1.6063 C.ar    1  UNL1        0.0000
     33 C          -0.9527    4.5080   -1.2734 C.ar    1  UNL1        0.0000
     34 C          -3.1681   -2.7469    0.0816 C.3     1  UNL1        0.0000
     35 C          -2.4259   -4.0912    0.3352 C.ar    1  UNL1        0.0000
     36 C          -1.4731   -4.1835    1.3626 C.ar    1  UNL1        0.0000
     37 C          -0.8195   -5.3845    1.6282 C.ar    1  UNL1        0.0000
     38 C          -1.1150   -6.5255    0.8824 C.ar    1  UNL1        0.0000
     39 C          -2.0819   -6.4541   -0.1180 C.ar    1  UNL1        0.0000
     40 C          -2.7319   -5.2481   -0.3906 C.ar    1  UNL1        0.0000
     41 C          -3.9461   -2.7544   -1.2485 C.ar    1  UNL1        0.0000
     42 C          -3.2821   -3.0295   -2.4564 C.ar    1  UNL1        0.0000
     43 C          -3.9688   -3.0303   -3.6660 C.ar    1  UNL1        0.0000
     44 C          -5.3395   -2.7624   -3.6997 C.ar    1  UNL1        0.0000
     45 C          -6.0107   -2.5004   -2.5089 C.ar    1  UNL1        0.0000
     46 C          -5.3189   -2.4955   -1.2939 C.ar    1  UNL1        0.0000
     47 C          -4.1054   -2.4373    1.2634 C.ar    1  UNL1        0.0000
     48 C          -4.4338   -1.1164    1.5979 C.ar    1  UNL1        0.0000
     49 C          -5.3456   -0.8414    2.6138 C.ar    1  UNL1        0.0000
     50 C          -5.9564   -1.8869    3.3082 C.ar    1  UNL1        0.0000
     51 C          -5.6459   -3.2043    2.9757 C.ar    1  UNL1        0.0000
     52 C          -4.7264   -3.4763    1.9616 C.ar    1  UNL1        0.0000
     53 C           2.7559   -3.1264   -0.1005 C.3     1  UNL1        0.0000
     54 C           2.8821   -3.8276    1.2643 C.ar    1  UNL1        0.0000
     55 C           3.2053   -3.0832    2.4121 C.ar    1  UNL1        0.0000
     56 C           3.3184   -3.6992    3.6542 C.ar    1  UNL1        0.0000
     57 C           3.1180   -5.0764    3.7797 C.ar    1  UNL1        0.0000
     58 C           2.8141   -5.8258    2.6470 C.ar    1  UNL1        0.0000
     59 C           2.6980   -5.2057    1.3995 C.ar    1  UNL1        0.0000
     60 C           2.3699   -4.1264   -1.2062 C.ar    1  UNL1        0.0000
     61 C           1.0366   -4.5298   -1.3594 C.ar    1  UNL1        0.0000
     62 C           0.6860   -5.4838   -2.3111 C.ar    1  UNL1        0.0000
     63 C           1.6658   -6.0583   -3.1229 C.ar    1  UNL1        0.0000
     64 C           2.9959   -5.6725   -2.9684 C.ar    1  UNL1        0.0000
     65 C           3.3450   -4.7131   -2.0160 C.ar    1  UNL1        0.0000
     66 C           4.0676   -2.3847   -0.4887 C.ar    1  UNL1        0.0000
     67 C           4.0784   -1.4772   -1.5604 C.ar    1  UNL1        0.0000
     68 C           5.2502   -0.8256   -1.9363 C.ar    1  UNL1        0.0000
     69 C           6.4438   -1.0786   -1.2606 C.ar    1  UNL1        0.0000
     70 C           6.4540   -2.0050   -0.2206 C.ar    1  UNL1        0.0000
     71 C           5.2774   -2.6535    0.1620 C.ar    1  UNL1        0.0000
     72 C           3.1639    2.7126    0.0881 C.3     1  UNL1        0.0000
     73 C           4.1088    2.2515    1.2180 C.ar    1  UNL1        0.0000
     74 C           4.5166    0.9099    1.2647 C.ar    1  UNL1        0.0000
     75 C           5.3862    0.4620    2.2538 C.ar    1  UNL1        0.0000
     76 C           5.8715    1.3517    3.2154 C.ar    1  UNL1        0.0000
     77 C           5.4802    2.6873    3.1703 C.ar    1  UNL1        0.0000
     78 C           4.6036    3.1348    2.1780 C.ar    1  UNL1        0.0000
     79 C           3.8966    2.8037   -1.2626 C.ar    1  UNL1        0.0000
     80 C           5.2675    2.5673   -1.3802 C.ar    1  UNL1        0.0000
     81 C           5.9104    2.6858   -2.6162 C.ar    1  UNL1        0.0000
     82 C           5.1902    3.0401   -3.7530 C.ar    1  UNL1        0.0000
     83 C           3.8199    3.2944   -3.6430 C.ar    1  UNL1        0.0000
     84 C           3.1844    3.1859   -2.4110 C.ar    1  UNL1        0.0000
     85 C           2.5268    4.0838    0.4402 C.ar    1  UNL1        0.0000
     86 C           1.4075    4.1965    1.2767 C.ar    1  UNL1        0.0000
     87 C           0.9213    5.4477    1.6512 C.ar    1  UNL1        0.0000
     88 C           1.5469    6.6109    1.2100 C.ar    1  UNL1        0.0000
     89 C           2.6637    6.5115    0.3823 C.ar    1  UNL1        0.0000
     90 C           3.1454    5.2608   -0.0022 C.ar    1  UNL1        0.0000
     91 H          -4.0811    4.8565   -1.8012 H       1  UNL1        0.0000
     92 H          -5.7645    4.3350   -3.5215 H       1  UNL1        0.0000
     93 H          -6.4259    1.9764   -3.9557 H       1  UNL1        0.0000
     94 H          -5.3719    0.1453   -2.6246 H       1  UNL1        0.0000
     95 H          -3.7076    0.6670   -0.9208 H       1  UNL1        0.0000
     96 H          -5.4459    2.6320    0.5289 H       1  UNL1        0.0000
     97 H          -6.5561    2.7359    2.7227 H       1  UNL1        0.0000
     98 H          -5.2623    3.3552    4.7561 H       1  UNL1        0.0000
     99 H          -2.8402    3.8964    4.5453 H       1  UNL1        0.0000
    100 H          -1.7407    3.8046    2.3421 H       1  UNL1        0.0000
    101 H          -3.3607    5.6616    0.8171 H       1  UNL1        0.0000
    102 H          -2.3146    7.8071    0.2136 H       1  UNL1        0.0000
    103 H          -0.3653    7.8586   -1.3345 H       1  UNL1        0.0000
    104 H           0.5052    5.7254   -2.2700 H       1  UNL1        0.0000
    105 H          -0.5737    3.5928   -1.7078 H       1  UNL1        0.0000
    106 H          -1.2386   -3.3100    1.9556 H       1  UNL1        0.0000
    107 H          -0.0674   -5.4193    2.4087 H       1  UNL1        0.0000
    108 H          -0.5987   -7.4595    1.0810 H       1  UNL1        0.0000
    109 H          -2.3349   -7.3371   -0.6972 H       1  UNL1        0.0000
    110 H          -3.4815   -5.2138   -1.1707 H       1  UNL1        0.0000
    111 H          -3.4313   -3.2420   -4.5853 H       1  UNL1        0.0000
    112 H          -5.8751   -2.7637   -4.6441 H       1  UNL1        0.0000
    113 H          -7.0774   -2.2974   -2.5147 H       1  UNL1        0.0000
    114 H          -5.8595   -2.2865   -0.3801 H       1  UNL1        0.0000
    115 H          -3.9696   -0.2857    1.0802 H       1  UNL1        0.0000
    116 H          -6.6652   -1.6752    4.1030 H       1  UNL1        0.0000
    117 H          -6.1144   -4.0270    3.5074 H       1  UNL1        0.0000
    118 H          -4.4900   -4.5045    1.7135 H       1  UNL1        0.0000
    119 H           3.3691   -2.0160    2.3315 H       1  UNL1        0.0000
    120 H           3.5652   -3.1013    4.5263 H       1  UNL1        0.0000
    121 H           3.2059   -5.5567    4.7495 H       1  UNL1        0.0000
    122 H           2.6653   -6.8988    2.7245 H       1  UNL1        0.0000
    123 H           2.4544   -5.8047    0.5319 H       1  UNL1        0.0000
    124 H           0.2627   -4.1076   -0.7302 H       1  UNL1        0.0000
    125 H          -0.3536   -5.7786   -2.4054 H       1  UNL1        0.0000
    126 H           1.3938   -6.8007   -3.8671 H       1  UNL1        0.0000
    127 H           3.7686   -6.1143   -3.5905 H       1  UNL1        0.0000
    128 H           4.3823   -4.4192   -1.9064 H       1  UNL1        0.0000
    129 H           3.1638   -1.2759   -2.1001 H       1  UNL1        0.0000
    130 H           5.2226   -0.1067   -2.7475 H       1  UNL1        0.0000
    131 H           7.3548   -0.5611   -1.5448 H       1  UNL1        0.0000
    132 H           7.3778   -2.2261    0.3055 H       1  UNL1        0.0000
    133 H           5.3065   -3.3704    0.9724 H       1  UNL1        0.0000
    134 H           4.1592    0.2083    0.5200 H       1  UNL1        0.0000
    135 H           5.6849   -0.5807    2.2633 H       1  UNL1        0.0000
    136 H           6.5487    1.0046    3.9900 H       1  UNL1        0.0000
    137 H           4.3018    4.1747    2.1618 H       1  UNL1        0.0000
    138 H           5.8425    2.2833   -0.5088 H       1  UNL1        0.0000
    139 H           6.9779    2.4974   -2.6816 H       1  UNL1        0.0000
    140 H           5.6879    3.1283   -4.7139 H       1  UNL1        0.0000
    141 H           3.2470    3.5845   -4.5186 H       1  UNL1        0.0000
    142 H           2.1260    3.4014   -2.3322 H       1  UNL1        0.0000
    143 H           0.9138    3.3080    1.6452 H       1  UNL1        0.0000
    144 H           0.0386    5.5105    2.2793 H       1  UNL1        0.0000
    145 H           1.1611    7.5833    1.4985 H       1  UNL1        0.0000
    146 H           4.0169    5.1988   -0.6425 H       1  UNL1        0.0000
    147 H          -5.5657    0.1919    2.8609 H       1  UNL1        0.0000
    148 H           3.1649    7.4079    0.0293 H       1  UNL1        0.0000
    149 H           5.8508    3.3899    3.9107 H       1  UNL1        0.0000
    150 H          -2.2212   -3.2443   -2.4468 H       1  UNL1        0.0000
@<TRIPOS>BOND
     1     2    12    1
     2     2     8    1
     3     2    14    1
     4     2    10    1
     5     2     1    1
     6     3    72    1
     7     3    13    1
     8     4     7    1
     9     5    34    1
    10     5     9    1
    11     6    11    1
    12     7     1    1
    13     8     4    1
    14     9     1    1
    15    10     5    1
    16    11     1    1
    17    12     6    1
    18    13     1    1
    19    14     3    1
    20    15     4    1
    21    15    22    1
    22    16    15    1
    23    17    91    1
    24    17    16   ar
    25    18    17   ar
    26    19    18   ar
    27    19    20   ar
    28    20    21   ar
    29    21    16   ar
    30    21    95    1
    31    22    23   ar
    32    22    27   ar
    33    23    24   ar
    34    24    97    1
    35    24    25   ar
    36    25    98    1
    37    26    25   ar
    38    26    99    1
    39    27    26   ar
    40    28    15    1
    41    28    29   ar
    42    29   101    1
    43    30    29   ar
    44    30   102    1
    45    31    30   ar
    46    32    33   ar
    47    32    31   ar
    48    33    28   ar
    49    34    35    1
    50    34    47    1
    51    35    36   ar
    52    36    37   ar
    53    36   106    1
    54    37   107    1
    55    38   108    1
    56    38    37   ar
    57    39    38   ar
    58    40    39   ar
    59    40    35   ar
    60    41    34    1
    61    42   150    1
    62    42    41   ar
    63    43    42   ar
    64    44    43   ar
    65    44    45   ar
    66    45    46   ar
    67    46    41   ar
    68    46   114    1
    69    47    48   ar
    70    47    52   ar
    71    48    49   ar
    72    49   147    1
    73    49    50   ar
    74    50   116    1
    75    51    50   ar
    76    51   117    1
    77    52    51   ar
    78    53     6    1
    79    53    54    1
    80    54    59   ar
    81    54    55   ar
    82    55    56   ar
    83    56    57   ar
    84    56   120    1
    85    57   121    1
    86    58   122    1
    87    58    57   ar
    88    59    58   ar
    89    60    53    1
    90    61    60   ar
    91    61   124    1
    92    62    61   ar
    93    63    64   ar
    94    63    62   ar
    95    64    65   ar
    96    65   128    1
    97    65    60   ar
    98    66    53    1
    99    66    71   ar
   100    67    66   ar
   101    68    67   ar
   102    68    69   ar
   103    69    70   ar
   104    70    71   ar
   105    70   132    1
   106    71   133    1
   107    72    85    1
   108    72    73    1
   109    73    74   ar
   110    73    78   ar
   111    74    75   ar
   112    75   135    1
   113    75    76   ar
   114    76   136    1
   115    77    76   ar
   116    77   149    1
   117    78    77   ar
   118    79    72    1
   119    80    79   ar
   120    80   138    1
   121    81    80   ar
   122    82    83   ar
   123    82    81   ar
   124    83    84   ar
   125    84   142    1
   126    84    79   ar
   127    85    86   ar
   128    86   143    1
   129    86    87   ar
   130    87   144    1
   131    88   145    1
   132    88    87   ar
   133    89    88   ar
   134    90    89   ar
   135    90    85   ar
   136    92    18    1
   137    93    19    1
   138    94    20    1
   139    96    23    1
   140   100    27    1
   141   103    31    1
   142   104    32    1
   143   105    33    1
   144   109    39    1
   145   110    40    1
   146   111    43    1
   147   112    44    1
   148   113    45    1
   149   115    48    1
   150   118    52    1
   151   119    55    1
   152   123    59    1
   153   125    62    1
   154   126    63    1
   155   127    64    1
   156   129    67    1
   157   130    68    1
   158   131    69    1
   159   134    74    1
   160   137    78    1
   161   139    81    1
   162   140    82    1
   163   141    83    1
   164   146    90    1
   165   148    89    1
