@<TRIPOS>MOLECULE
RhRh_S-TCPTTL4_fromcarbene_20kcal_7_sp
 134 145 0 0 0
SMALL
GASTEIGER

@<TRIPOS>ATOM
      1 Rh         -0.7309   -0.9514   -0.6972 Rh      1  UNL1        0.0000
      2 Rh         -1.1689   -1.0972   -3.0449 Rh      1  UNL1        0.0000
      3 C           0.9827    0.6985   -2.2945 C.3     1  UNL1        0.0000
      4 C          -2.9141   -2.7053   -1.4007 C.3     1  UNL1        0.0000
      5 C           0.8316   -2.9377   -2.1032 C.3     1  UNL1        0.0000
      6 C          -2.6674    0.9476   -1.6847 C.3     1  UNL1        0.0000
      7 O          -2.2213   -2.3320   -0.4043 O.3     1  UNL1        0.0000
      8 O          -2.6639   -2.4553   -2.6176 O.3     1  UNL1        0.0000
      9 O          -2.0721    0.5933   -0.6166 O.3     1  UNL1        0.0000
     10 O          -2.5596    0.3964   -2.8181 O.3     1  UNL1        0.0000
     11 O           0.6965    0.4387   -1.0827 O.3     1  UNL1        0.0000
     12 O           0.3732    0.2553   -3.3118 O.3     1  UNL1        0.0000
     13 O           0.6606   -2.4548   -0.9459 O.3     1  UNL1        0.0000
     14 O           0.2296   -2.5849   -3.1681 O.3     1  UNL1        0.0000
     15 N          -4.7225   -2.9797    0.1684 N.am    1  UNL1        0.0000
     16 N          -2.6715    3.3058   -1.1963 N.am    1  UNL1        0.0000
     17 N           2.8264    1.8468   -1.2147 N.am    1  UNL1        0.0000
     18 N           2.8606   -4.0008   -1.2444 N.am    1  UNL1        0.0000
     19 CL         -5.6039   -4.4981    4.4403 Cl      1  UNL1        0.0000
     20 CL         -6.1714   -1.9456    6.2098 Cl      1  UNL1        0.0000
     21 CL         -5.9864    0.9165    4.9500 Cl      1  UNL1        0.0000
     22 CL         -5.2369    1.2687    1.9103 Cl      1  UNL1        0.0000
     23 CL         -2.1023    6.1581    2.4041 Cl      1  UNL1        0.0000
     24 CL          0.3466    8.0210    1.6910 Cl      1  UNL1        0.0000
     25 CL          1.7587    7.7669   -1.0939 Cl      1  UNL1        0.0000
     26 CL          0.7458    5.6368   -3.1956 Cl      1  UNL1        0.0000
     27 CL          4.4819   -0.7537    2.2388 Cl      1  UNL1        0.0000
     28 CL          4.7759    1.1321    4.7375 Cl      1  UNL1        0.0000
     29 CL          3.9575    4.1523    4.5425 Cl      1  UNL1        0.0000
     30 CL          2.8369    5.3165    1.8302 Cl      1  UNL1        0.0000
     31 CL          3.5739   -4.7819    3.2496 Cl      1  UNL1        0.0000
     32 CL          6.5136   -3.8311    3.8833 Cl      1  UNL1        0.0000
     33 CL          8.2677   -2.5299    1.6381 Cl      1  UNL1        0.0000
     34 CL          7.1146   -2.1995   -1.2834 Cl      1  UNL1        0.0000
     35 C          -4.1367   -3.5649   -1.0390 C.3     1  UNL1        0.0000
     36 C          -4.8776   -3.7253    1.3486 C.2     1  UNL1        0.0000
     37 C          -5.2399   -2.7304    2.4078 C.ar    1  UNL1        0.0000
     38 C          -5.5379   -2.9141    3.7490 C.ar    1  UNL1        0.0000
     39 C          -5.7852   -1.7651    4.5328 C.ar    1  UNL1        0.0000
     40 C          -5.7083   -0.4780    3.9646 C.ar    1  UNL1        0.0000
     41 C          -5.4001   -0.3105    2.5955 C.ar    1  UNL1        0.0000
     42 C          -5.1891   -1.4542    1.8390 C.ar    1  UNL1        0.0000
     43 C          -4.8618   -1.6055    0.3889 C.2     1  UNL1        0.0000
     44 C          -5.1663   -3.8870   -2.1597 C.3     1  UNL1        0.0000
     45 C          -5.7315   -2.6255   -2.8310 C.3     1  UNL1        0.0000
     46 C          -4.4793   -4.7865   -3.2055 C.3     1  UNL1        0.0000
     47 C          -6.3213   -4.6803   -1.5195 C.3     1  UNL1        0.0000
     48 C          -3.5591    2.1812   -1.5093 C.3     1  UNL1        0.0000
     49 C          -2.7738    4.0247    0.0067 C.2     1  UNL1        0.0000
     50 C          -1.6570    5.0245   -0.0270 C.ar    1  UNL1        0.0000
     51 C          -1.2796    5.9925    0.8905 C.ar    1  UNL1        0.0000
     52 C          -0.1938    6.8313    0.5540 C.ar    1  UNL1        0.0000
     53 C           0.4474    6.7147   -0.6944 C.ar    1  UNL1        0.0000
     54 C           0.0369    5.7338   -1.6218 C.ar    1  UNL1        0.0000
     55 C          -0.9815    4.8758   -1.2417 C.ar    1  UNL1        0.0000
     56 C          -1.5437    3.6798   -1.9387 C.2     1  UNL1        0.0000
     57 C          -4.6172    2.5089   -2.5998 C.3     1  UNL1        0.0000
     58 C          -5.4422    3.7050   -2.0867 C.3     1  UNL1        0.0000
     59 C          -4.0111    2.8684   -3.9660 C.3     1  UNL1        0.0000
     60 C          -5.5503    1.2936   -2.7481 C.3     1  UNL1        0.0000
     61 C           2.1395    1.6783   -2.4989 C.3     1  UNL1        0.0000
     62 C           3.3239    0.8175   -0.3956 C.2     1  UNL1        0.0000
     63 C           3.5820    1.4575    0.9394 C.ar    1  UNL1        0.0000
     64 C           4.0600    0.9180    2.1234 C.ar    1  UNL1        0.0000
     65 C           4.1797    1.7697    3.2439 C.ar    1  UNL1        0.0000
     66 C           3.8127    3.1272    3.1567 C.ar    1  UNL1        0.0000
     67 C           3.3187    3.6578    1.9456 C.ar    1  UNL1        0.0000
     68 C           3.2202    2.8030    0.8581 C.ar    1  UNL1        0.0000
     69 C           2.7056    3.0549   -0.5172 C.2     1  UNL1        0.0000
     70 C           3.0685    1.4280   -3.7308 C.3     1  UNL1        0.0000
     71 C           3.4874   -0.0430   -3.8814 C.3     1  UNL1        0.0000
     72 C           2.3115    1.8871   -4.9928 C.3     1  UNL1        0.0000
     73 C           4.3170    2.3116   -3.5616 C.3     1  UNL1        0.0000
     74 C           1.8313   -4.0722   -2.2748 C.3     1  UNL1        0.0000
     75 C           2.7571   -4.3108    0.1184 C.2     1  UNL1        0.0000
     76 C           4.0869   -3.9433    0.7117 C.ar    1  UNL1        0.0000
     77 C           4.5622   -4.0970    2.0057 C.ar    1  UNL1        0.0000
     78 C           5.8799   -3.6682    2.2808 C.ar    1  UNL1        0.0000
     79 C           6.6719   -3.0878    1.2695 C.ar    1  UNL1        0.0000
     80 C           6.1669   -2.9379   -0.0393 C.ar    1  UNL1        0.0000
     81 C           4.8795   -3.3850   -0.2912 C.ar    1  UNL1        0.0000
     82 C           4.0970   -3.4059   -1.5616 C.2     1  UNL1        0.0000
     83 C           1.1148   -5.4606   -2.4823 C.3     1  UNL1        0.0000
     84 C           2.0856   -6.5946   -2.1175 C.3     1  UNL1        0.0000
     85 C          -0.1814   -5.5784   -1.6589 C.3     1  UNL1        0.0000
     86 C           0.7626   -5.5700   -3.9787 C.3     1  UNL1        0.0000
     87 H          -3.7283   -4.5231   -0.6950 H       1  UNL1        0.0000
     88 H          -4.9446   -2.0407   -3.3081 H       1  UNL1        0.0000
     89 H          -6.2412   -1.9820   -2.1107 H       1  UNL1        0.0000
     90 H          -6.4585   -2.9177   -3.5956 H       1  UNL1        0.0000
     91 H          -5.2105   -5.0971   -3.9580 H       1  UNL1        0.0000
     92 H          -4.0770   -5.6940   -2.7407 H       1  UNL1        0.0000
     93 H          -3.6656   -4.2664   -3.7117 H       1  UNL1        0.0000
     94 H          -7.0119   -5.0140   -2.2994 H       1  UNL1        0.0000
     95 H          -6.8885   -4.0647   -0.8155 H       1  UNL1        0.0000
     96 H          -5.9582   -5.5613   -0.9822 H       1  UNL1        0.0000
     97 H          -4.0977    1.9930   -0.5784 H       1  UNL1        0.0000
     98 H          -6.2509    3.9237   -2.7902 H       1  UNL1        0.0000
     99 H          -4.8303    4.6076   -1.9960 H       1  UNL1        0.0000
    100 H          -5.8869    3.4982   -1.1084 H       1  UNL1        0.0000
    101 H          -4.8231    3.0454   -4.6791 H       1  UNL1        0.0000
    102 H          -3.3779    2.0673   -4.3463 H       1  UNL1        0.0000
    103 H          -3.4125    3.7812   -3.9184 H       1  UNL1        0.0000
    104 H          -6.3583    1.5398   -3.4439 H       1  UNL1        0.0000
    105 H          -5.9950    1.0141   -1.7895 H       1  UNL1        0.0000
    106 H          -5.0163    0.4253   -3.1353 H       1  UNL1        0.0000
    107 H           1.6569    2.6489   -2.6632 H       1  UNL1        0.0000
    108 H           4.1201   -0.1506   -4.7681 H       1  UNL1        0.0000
    109 H           2.6186   -0.6923   -4.0142 H       1  UNL1        0.0000
    110 H           4.0487   -0.4027   -3.0197 H       1  UNL1        0.0000
    111 H           2.9573    1.7698   -5.8686 H       1  UNL1        0.0000
    112 H           2.0280    2.9428   -4.9200 H       1  UNL1        0.0000
    113 H           1.4055    1.3010   -5.1489 H       1  UNL1        0.0000
    114 H           4.9199    2.2698   -4.4733 H       1  UNL1        0.0000
    115 H           4.9433    1.9715   -2.7323 H       1  UNL1        0.0000
    116 H           4.0457    3.3574   -3.3815 H       1  UNL1        0.0000
    117 H           2.3799   -3.8522   -3.1933 H       1  UNL1        0.0000
    118 H           1.6558   -7.5510   -2.4305 H       1  UNL1        0.0000
    119 H           2.2626   -6.6469   -1.0418 H       1  UNL1        0.0000
    120 H           3.0470   -6.4774   -2.6285 H       1  UNL1        0.0000
    121 H          -0.6055   -6.5786   -1.7924 H       1  UNL1        0.0000
    122 H          -0.9286   -4.8587   -2.0092 H       1  UNL1        0.0000
    123 H           0.0006   -5.4129   -0.5974 H       1  UNL1        0.0000
    124 H           0.2276   -6.5065   -4.1645 H       1  UNL1        0.0000
    125 H           1.6659   -5.5675   -4.5983 H       1  UNL1        0.0000
    126 H           0.1268   -4.7413   -4.2975 H       1  UNL1        0.0000
    127 O           1.8065   -4.8060    0.6806 O.2     1  UNL1        0.0000
    128 O           2.2491    4.0809   -0.9742 O.2     1  UNL1        0.0000
    129 O           4.4215   -3.0307   -2.6665 O.2     1  UNL1        0.0000
    130 O           3.5034   -0.3354   -0.7190 O.2     1  UNL1        0.0000
    131 O          -1.1044    3.0955   -2.9068 O.2     1  UNL1        0.0000
    132 O          -3.6198    3.8484    0.8555 O.2     1  UNL1        0.0000
    133 O          -4.7183   -4.9218    1.4391 O.2     1  UNL1        0.0000
    134 O          -4.7332   -0.7460   -0.4572 O.2     1  UNL1        0.0000
@<TRIPOS>BOND
     1     1     9    1
     2     1     7    1
     3     2    10    1
     4     2     8    1
     5     2     1    1
     6     3    61    1
     7     3    11    1
     8     4    35    1
     9     4     7    1
    10     5    74    1
    11     5    13    1
    12     6    48    1
    13     6     9    1
    14     8     4    1
    15    10     6    1
    16    11     1    1
    17    12     2    1
    18    12     3    1
    19    13     1    1
    20    14     2    1
    21    14     5    1
    22    15    43   am
    23    15    36   am
    24    16    49   am
    25    17    69   am
    26    17    62   am
    27    18    75   am
    28    22    41    1
    29    25    53    1
    30    26    54    1
    31    30    67    1
    32    34    80    1
    33    35    87    1
    34    35    15    1
    35    36   133    2
    36    36    37    1
    37    37    38   ar
    38    38    19    1
    39    38    39   ar
    40    39    20    1
    41    40    39   ar
    42    40    21    1
    43    41    40   ar
    44    42    37   ar
    45    42    41   ar
    46    43    42    1
    47    44    47    1
    48    44    35    1
    49    45    44    1
    50    45    89    1
    51    46    92    1
    52    46    44    1
    53    47    96    1
    54    47    95    1
    55    48    16    1
    56    48    97    1
    57    49   132    2
    58    50    49    1
    59    50    51   ar
    60    51    23    1
    61    52    51   ar
    62    52    24    1
    63    53    52   ar
    64    54    55   ar
    65    54    53   ar
    66    55    50   ar
    67    56    55    1
    68    56    16   am
    69    57    58    1
    70    57    48    1
    71    58    99    1
    72    58   100    1
    73    59   103    1
    74    59    57    1
    75    60    57    1
    76    60   105    1
    77    61   107    1
    78    61    17    1
    79    62    63    1
    80    63    64   ar
    81    64    27    1
    82    64    65   ar
    83    65    28    1
    84    66    65   ar
    85    66    29    1
    86    67    66   ar
    87    68    63   ar
    88    68    67   ar
    89    69    68    1
    90    70    73    1
    91    70    61    1
    92    71    70    1
    93    71   110    1
    94    72   112    1
    95    72    70    1
    96    73   116    1
    97    73   115    1
    98    74   117    1
    99    74    18    1
   100    75   127    2
   101    75    76    1
   102    76    77   ar
   103    77    78   ar
   104    77    31    1
   105    78    32    1
   106    79    33    1
   107    79    78   ar
   108    80    79   ar
   109    81    80   ar
   110    81    76   ar
   111    82    18   am
   112    82    81    1
   113    83    74    1
   114    83    84    1
   115    83    85    1
   116    84   119    1
   117    85   123    1
   118    86    83    1
   119    88    45    1
   120    90    45    1
   121    91    46    1
   122    93    46    1
   123    94    47    1
   124    98    58    1
   125   101    59    1
   126   102    59    1
   127   104    60    1
   128   106    60    1
   129   108    71    1
   130   109    71    1
   131   111    72    1
   132   113    72    1
   133   114    73    1
   134   118    84    1
   135   120    84    1
   136   121    85    1
   137   122    85    1
   138   124    86    1
   139   125    86    1
   140   126    86    1
   141   128    69    2
   142   129    82    2
   143   130    62    2
   144   131    56    2
   145   134    43    2
