@<TRIPOS>MOLECULE
RhRh_anthracenyl-O2C4_5_sp
 106 121 0 0 0
SMALL
GASTEIGER

@<TRIPOS>ATOM
      1 Rh         -0.0103   -0.2369   -1.1727 Rh      1  UNL1        0.0000
      2 Rh          0.0103    0.2367    1.1727 Rh      1  UNL1        0.0000
      3 C           1.8699    1.8103   -0.4124 C.3     1  UNL1        0.0000
      4 C          -2.0328    1.6493   -0.3217 C.3     1  UNL1        0.0000
      5 C          -1.8699   -1.8104    0.4124 C.3     1  UNL1        0.0000
      6 C           2.0328   -1.6495    0.3217 C.3     1  UNL1        0.0000
      7 O           1.5431   -1.1209    1.3709 O.3     1  UNL1        0.0000
      8 O           1.5502   -1.5330   -0.8559 O.3     1  UNL1        0.0000
      9 O           1.4331    1.6734    0.7793 O.3     1  UNL1        0.0000
     10 O           1.4093    1.2244   -1.4424 O.3     1  UNL1        0.0000
     11 O          -1.5430    1.1208   -1.3708 O.3     1  UNL1        0.0000
     12 O          -1.5502    1.5328    0.8559 O.3     1  UNL1        0.0000
     13 O          -1.4331   -1.6735   -0.7793 O.3     1  UNL1        0.0000
     14 O          -1.4092   -1.2246    1.4424 O.3     1  UNL1        0.0000
     15 C           3.2949   -2.4302    0.4516 C.ar    1  UNL1        0.0000
     16 C           4.4175   -1.8148    1.0550 C.ar    1  UNL1        0.0000
     17 C           5.6708   -2.5313    1.0667 C.ar    1  UNL1        0.0000
     18 C           5.7282   -3.8280    0.5498 C.ar    1  UNL1        0.0000
     19 C           4.6135   -4.4507   -0.0180 C.ar    1  UNL1        0.0000
     20 C           4.6880   -5.7793   -0.5377 C.ar    1  UNL1        0.0000
     21 C           2.3723   -5.6570   -1.2142 C.ar    1  UNL1        0.0000
     22 C           3.6000   -6.3704   -1.1185 C.ar    1  UNL1        0.0000
     23 C           2.2569   -4.3836   -0.7230 C.ar    1  UNL1        0.0000
     24 C           3.3674   -3.7294   -0.1010 C.ar    1  UNL1        0.0000
     25 C           3.0564    2.6998   -0.5746 C.ar    1  UNL1        0.0000
     26 C           2.9422    4.0653   -0.2504 C.ar    1  UNL1        0.0000
     27 C           4.1255    4.8883   -0.2739 C.ar    1  UNL1        0.0000
     28 C           5.3577    4.3030   -0.5806 C.ar    1  UNL1        0.0000
     29 C           5.4725    2.9494   -0.9126 C.ar    1  UNL1        0.0000
     30 C           6.7381    2.3553   -1.2061 C.ar    1  UNL1        0.0000
     31 C           6.8354    1.0297   -1.5320 C.ar    1  UNL1        0.0000
     32 C           5.6656    0.2240   -1.6017 C.ar    1  UNL1        0.0000
     33 C           4.4330    0.7508   -1.3237 C.ar    1  UNL1        0.0000
     34 C           4.2888    2.1239   -0.9500 C.ar    1  UNL1        0.0000
     35 C          -3.2948    2.4301   -0.4516 C.ar    1  UNL1        0.0000
     36 C          -4.4174    1.8148   -1.0550 C.ar    1  UNL1        0.0000
     37 C          -5.6707    2.5314   -1.0666 C.ar    1  UNL1        0.0000
     38 C          -5.7279    3.8281   -0.5497 C.ar    1  UNL1        0.0000
     39 C          -4.6132    4.4507    0.0180 C.ar    1  UNL1        0.0000
     40 C          -4.6876    5.7793    0.5377 C.ar    1  UNL1        0.0000
     41 C          -2.3718    5.6568    1.2144 C.ar    1  UNL1        0.0000
     42 C          -3.5995    6.3703    1.1186 C.ar    1  UNL1        0.0000
     43 C          -2.2567    4.3834    0.7231 C.ar    1  UNL1        0.0000
     44 C          -3.3671    3.7293    0.1011 C.ar    1  UNL1        0.0000
     45 C          -3.0565   -2.6998    0.5746 C.ar    1  UNL1        0.0000
     46 C          -4.2888   -2.1237    0.9500 C.ar    1  UNL1        0.0000
     47 C          -5.4726   -2.9491    0.9125 C.ar    1  UNL1        0.0000
     48 C          -5.3581   -4.3026    0.5804 C.ar    1  UNL1        0.0000
     49 C          -4.1259   -4.8881    0.2737 C.ar    1  UNL1        0.0000
     50 C          -4.0048   -6.2791   -0.0286 C.ar    1  UNL1        0.0000
     51 C          -2.7880   -6.8329   -0.3211 C.ar    1  UNL1        0.0000
     52 C          -1.6166   -6.0229   -0.3309 C.ar    1  UNL1        0.0000
     53 C          -1.6919   -4.6828   -0.0624 C.ar    1  UNL1        0.0000
     54 C          -2.9424   -4.0653    0.2502 C.ar    1  UNL1        0.0000
     55 C           1.6161    6.0229    0.3306 C.ar    1  UNL1        0.0000
     56 C          -4.4329   -0.7507    1.3238 C.ar    1  UNL1        0.0000
     57 C          -6.7382   -2.3548    1.2060 C.ar    1  UNL1        0.0000
     58 C          -6.8353   -1.0293    1.5320 C.ar    1  UNL1        0.0000
     59 C          -5.6653   -0.2237    1.6019 C.ar    1  UNL1        0.0000
     60 C          -4.4027    0.4883   -1.5940 C.ar    1  UNL1        0.0000
     61 C          -6.8362    1.8935   -1.5921 C.ar    1  UNL1        0.0000
     62 C          -5.5445   -0.0869   -2.0833 C.ar    1  UNL1        0.0000
     63 C          -6.7796    0.6177   -2.0813 C.ar    1  UNL1        0.0000
     64 C           6.8362   -1.8933    1.5923 C.ar    1  UNL1        0.0000
     65 C           6.7795   -0.6175    2.0815 C.ar    1  UNL1        0.0000
     66 C           5.5443    0.0869    2.0835 C.ar    1  UNL1        0.0000
     67 C           4.4026   -0.4883    1.5942 C.ar    1  UNL1        0.0000
     68 C           2.7874    6.8330    0.3207 C.ar    1  UNL1        0.0000
     69 C           1.6916    4.6827    0.0622 C.ar    1  UNL1        0.0000
     70 C           4.0042    6.2793    0.0283 C.ar    1  UNL1        0.0000
     71 H           6.6725   -4.3658    0.5813 H       1  UNL1        0.0000
     72 H           5.6338   -6.3082   -0.4614 H       1  UNL1        0.0000
     73 H           1.5177   -6.1250   -1.6934 H       1  UNL1        0.0000
     74 H           3.6679   -7.3796   -1.5123 H       1  UNL1        0.0000
     75 H           1.3223   -3.8495   -0.8273 H       1  UNL1        0.0000
     76 H           6.2533    4.9191   -0.5639 H       1  UNL1        0.0000
     77 H           7.6233    2.9836   -1.1620 H       1  UNL1        0.0000
     78 H           7.8038    0.5879   -1.7442 H       1  UNL1        0.0000
     79 H           5.7520   -0.8257   -1.8623 H       1  UNL1        0.0000
     80 H           3.5543    0.1232   -1.3899 H       1  UNL1        0.0000
     81 H          -6.6722    4.3660   -0.5812 H       1  UNL1        0.0000
     82 H          -5.6333    6.3083    0.4615 H       1  UNL1        0.0000
     83 H          -1.5172    6.1246    1.6935 H       1  UNL1        0.0000
     84 H          -3.6673    7.3795    1.5123 H       1  UNL1        0.0000
     85 H          -1.3221    3.8491    0.8275 H       1  UNL1        0.0000
     86 H          -6.2537   -4.9187    0.5637 H       1  UNL1        0.0000
     87 H          -4.9031   -6.8898   -0.0123 H       1  UNL1        0.0000
     88 H          -2.7081   -7.8928   -0.5412 H       1  UNL1        0.0000
     89 H          -0.6527   -6.4751   -0.5421 H       1  UNL1        0.0000
     90 H          -0.7930   -4.0782   -0.0683 H       1  UNL1        0.0000
     91 H           0.6521    6.4749    0.5417 H       1  UNL1        0.0000
     92 H           7.6728   -0.1380    2.4689 H       1  UNL1        0.0000
     93 H           5.5079    1.1025    2.4642 H       1  UNL1        0.0000
     94 H           3.4793    0.0731    1.6014 H       1  UNL1        0.0000
     95 H           7.7708   -2.4469    1.5863 H       1  UNL1        0.0000
     96 H          -7.6234   -2.9829    1.1618 H       1  UNL1        0.0000
     97 H          -3.5540   -0.1232    1.3902 H       1  UNL1        0.0000
     98 H           2.7073    7.8929    0.5407 H       1  UNL1        0.0000
     99 H           0.7927    4.0780    0.0681 H       1  UNL1        0.0000
    100 H           4.9024    6.8901    0.0119 H       1  UNL1        0.0000
    101 H          -7.7707    2.4471   -1.5861 H       1  UNL1        0.0000
    102 H          -7.6730    0.1382   -2.4685 H       1  UNL1        0.0000
    103 H          -7.8036   -0.5874    1.7442 H       1  UNL1        0.0000
    104 H          -5.7516    0.8260    1.8626 H       1  UNL1        0.0000
    105 H          -5.5082   -1.1025   -2.4638 H       1  UNL1        0.0000
    106 H          -3.4795   -0.0732   -1.6013 H       1  UNL1        0.0000
@<TRIPOS>BOND
     1     1     8    1
     2     1    13    1
     3     1     2    1
     4     2     7    1
     5     2    14    1
     6     3     9    1
     7     4    12    1
     8     5    45    1
     9     5    14    1
    10     6    15    1
    11     6     7    1
    12     8     6    1
    13     9     2    1
    14    10     1    1
    15    10     3    1
    16    11     1    1
    17    11     4    1
    18    12     2    1
    19    13     5    1
    20    15    16   ar
    21    16    17   ar
    22    16    67   ar
    23    17    64   ar
    24    18    71    1
    25    18    17   ar
    26    19    18   ar
    27    20    72    1
    28    20    19   ar
    29    21    22   ar
    30    21    23   ar
    31    22    20   ar
    32    23    24   ar
    33    24    19   ar
    34    24    15   ar
    35    25     3    1
    36    25    26   ar
    37    26    69   ar
    38    27    26   ar
    39    27    70   ar
    40    28    76    1
    41    28    27   ar
    42    29    28   ar
    43    30    77    1
    44    30    29   ar
    45    31    30   ar
    46    32    31   ar
    47    32    33   ar
    48    33    34   ar
    49    34    29   ar
    50    34    25   ar
    51    35     4    1
    52    35    44   ar
    53    36    35   ar
    54    37    36   ar
    55    37    38   ar
    56    38    39   ar
    57    39    44   ar
    58    39    40   ar
    59    40    42   ar
    60    41    83    1
    61    42    41   ar
    62    42    84    1
    63    43    85    1
    64    43    41   ar
    65    44    43   ar
    66    45    46   ar
    67    46    56   ar
    68    47    46   ar
    69    47    57   ar
    70    48    47   ar
    71    49    48   ar
    72    50    87    1
    73    50    49   ar
    74    51    50   ar
    75    52    51   ar
    76    52    53   ar
    77    53    54   ar
    78    54    49   ar
    79    54    45   ar
    80    55    91    1
    81    56    97    1
    82    56    59   ar
    83    57    58   ar
    84    58    59   ar
    85    58   103    1
    86    59   104    1
    87    60    36   ar
    88    61   101    1
    89    61    37   ar
    90    62    63   ar
    91    62    60   ar
    92    63    61   ar
    93    64    65   ar
    94    65    66   ar
    95    65    92    1
    96    66    93    1
    97    67    94    1
    98    67    66   ar
    99    68    55   ar
   100    68    98    1
   101    69    99    1
   102    69    55   ar
   103    70    68   ar
   104    73    21    1
   105    74    22    1
   106    75    23    1
   107    78    31    1
   108    79    32    1
   109    80    33    1
   110    81    38    1
   111    82    40    1
   112    86    48    1
   113    88    51    1
   114    89    52    1
   115    90    53    1
   116    95    64    1
   117    96    57    1
   118   100    70    1
   119   102    63    1
   120   105    62    1
   121   106    60    1
