@<TRIPOS>MOLECULE
RhRh_EtEtiPr-O2C4_8_sp
 114 117 0 0 0
SMALL
GASTEIGER

@<TRIPOS>ATOM
      1 Rh          0.0315    0.1326    1.1849 Rh      1  UNL1        0.0000
      2 Rh         -0.0154    0.0793   -1.1956 Rh      1  UNL1        0.0000
      3 C           0.5066   -2.4955    0.0270 C.3     1  UNL1        0.0000
      4 C           2.6180    0.5609   -0.0705 C.3     1  UNL1        0.0000
      5 C          -0.5703    2.6864   -0.0309 C.3     1  UNL1        0.0000
      6 C          -2.5680   -0.5140    0.0617 C.3     1  UNL1        0.0000
      7 O           2.0319    0.6046    1.0602 O.3     1  UNL1        0.0000
      8 O           2.0193    0.3750   -1.1811 O.3     1  UNL1        0.0000
      9 O           0.5047   -1.8746    1.1390 O.3     1  UNL1        0.0000
     10 O           0.3089   -1.9449   -1.1066 O.3     1  UNL1        0.0000
     11 O          -0.4757    2.1140    1.1056 O.3     1  UNL1        0.0000
     12 O          -0.3625    2.1143   -1.1486 O.3     1  UNL1        0.0000
     13 O          -1.9631   -0.3568    1.1740 O.3     1  UNL1        0.0000
     14 O          -2.0365   -0.3098   -1.0780 O.3     1  UNL1        0.0000
     15 C           4.1376    0.7832   -0.1098 C.3     1  UNL1        0.0000
     16 C           4.6985    0.0558   -1.3652 C.3     1  UNL1        0.0000
     17 C           6.1980    0.2291   -1.6178 C.3     1  UNL1        0.0000
     18 C           4.8310    0.2466    1.1901 C.3     1  UNL1        0.0000
     19 C           4.5905    1.0645    2.4703 C.3     1  UNL1        0.0000
     20 C           4.5312   -1.2374    1.4538 C.3     1  UNL1        0.0000
     21 C           4.3594    2.3221   -0.2301 C.3     1  UNL1        0.0000
     22 C           3.9182    2.9620   -1.5485 C.3     1  UNL1        0.0000
     23 C           0.7282   -4.0138    0.0376 C.3     1  UNL1        0.0000
     24 C          -0.6724   -4.6773   -0.1454 C.3     1  UNL1        0.0000
     25 C          -1.3543   -4.5081   -1.5052 C.3     1  UNL1        0.0000
     26 C           1.6802   -4.3631   -1.1559 C.3     1  UNL1        0.0000
     27 C           3.0463   -3.6762   -1.0278 C.3     1  UNL1        0.0000
     28 C           1.8612   -5.8698   -1.3791 C.3     1  UNL1        0.0000
     29 C           1.3460   -4.4552    1.3918 C.3     1  UNL1        0.0000
     30 C           0.4147   -4.5000    2.6093 C.3     1  UNL1        0.0000
     31 C          -0.9873    4.1634   -0.0181 C.3     1  UNL1        0.0000
     32 C          -1.0646    4.6842   -1.4772 C.3     1  UNL1        0.0000
     33 C          -1.6594    6.0850   -1.6468 C.3     1  UNL1        0.0000
     34 C           0.0749    4.9882    0.7981 C.3     1  UNL1        0.0000
     35 C          -0.0477    4.8970    2.3260 C.3     1  UNL1        0.0000
     36 C           1.5097    4.6358    0.3828 C.3     1  UNL1        0.0000
     37 C          -2.3805    4.2195    0.6671 C.3     1  UNL1        0.0000
     38 C          -3.4867    3.4800   -0.0876 C.3     1  UNL1        0.0000
     39 C          -4.0124   -1.0254    0.1388 C.3     1  UNL1        0.0000
     40 C          -4.7281   -0.1971    1.2456 C.3     1  UNL1        0.0000
     41 C          -6.1868   -0.5736    1.5115 C.3     1  UNL1        0.0000
     42 C          -3.9291   -2.5353    0.5426 C.3     1  UNL1        0.0000
     43 C          -3.4706   -2.8693    1.9637 C.3     1  UNL1        0.0000
     44 C          -4.7774   -0.9194   -1.2227 C.3     1  UNL1        0.0000
     45 C          -4.9195    0.5177   -1.7450 C.3     1  UNL1        0.0000
     46 C          -4.2569   -1.8324   -2.3469 C.3     1  UNL1        0.0000
     47 H           4.4701   -1.0105   -1.2903 H       1  UNL1        0.0000
     48 H           4.1433    0.4058   -2.2362 H       1  UNL1        0.0000
     49 H           6.8106   -0.2167   -0.8290 H       1  UNL1        0.0000
     50 H           6.4829    1.2821   -1.7045 H       1  UNL1        0.0000
     51 H           6.4725   -0.2611   -2.5570 H       1  UNL1        0.0000
     52 H           5.9040    0.3285    0.9787 H       1  UNL1        0.0000
     53 H           4.8965    2.1076    2.3601 H       1  UNL1        0.0000
     54 H           5.1870    0.6381    3.2838 H       1  UNL1        0.0000
     55 H           3.5413    1.0429    2.7667 H       1  UNL1        0.0000
     56 H           5.0762   -1.5767    2.3403 H       1  UNL1        0.0000
     57 H           4.8344   -1.8763    0.6211 H       1  UNL1        0.0000
     58 H           3.4649   -1.3985    1.6376 H       1  UNL1        0.0000
     59 H           3.8353    2.8113    0.5940 H       1  UNL1        0.0000
     60 H           4.0356    4.0482   -1.4914 H       1  UNL1        0.0000
     61 H           2.8692    2.7471   -1.7677 H       1  UNL1        0.0000
     62 H           4.5141    2.6104   -2.3951 H       1  UNL1        0.0000
     63 H          -0.5559   -5.7447    0.0739 H       1  UNL1        0.0000
     64 H          -1.3342   -4.2864    0.6329 H       1  UNL1        0.0000
     65 H          -2.3437   -4.9765   -1.4822 H       1  UNL1        0.0000
     66 H          -0.7885   -4.9810   -2.3124 H       1  UNL1        0.0000
     67 H          -1.4818   -3.4553   -1.7640 H       1  UNL1        0.0000
     68 H           1.2034   -3.9511   -2.0491 H       1  UNL1        0.0000
     69 H           3.6436   -3.8534   -1.9279 H       1  UNL1        0.0000
     70 H           3.6163   -4.0549   -0.1740 H       1  UNL1        0.0000
     71 H           2.9375   -2.5950   -0.9149 H       1  UNL1        0.0000
     72 H           2.4594   -6.0359   -2.2806 H       1  UNL1        0.0000
     73 H           0.9101   -6.3906   -1.5164 H       1  UNL1        0.0000
     74 H           2.3897   -6.3494   -0.5493 H       1  UNL1        0.0000
     75 H           2.1873   -3.7953    1.6203 H       1  UNL1        0.0000
     76 H           0.9918   -4.7617    3.5021 H       1  UNL1        0.0000
     77 H          -0.3698   -5.2542    2.4995 H       1  UNL1        0.0000
     78 H          -0.0588   -3.5332    2.7857 H       1  UNL1        0.0000
     79 H          -0.0627    4.6614   -1.9148 H       1  UNL1        0.0000
     80 H          -1.6479    3.9749   -2.0684 H       1  UNL1        0.0000
     81 H          -1.6380    6.3702   -2.7031 H       1  UNL1        0.0000
     82 H          -1.1035    6.8482   -1.0942 H       1  UNL1        0.0000
     83 H          -2.7017    6.1321   -1.3178 H       1  UNL1        0.0000
     84 H          -0.1055    6.0351    0.5267 H       1  UNL1        0.0000
     85 H           0.7378    5.5044    2.7878 H       1  UNL1        0.0000
     86 H           0.0708    3.8670    2.6692 H       1  UNL1        0.0000
     87 H          -1.0066    5.2735    2.6897 H       1  UNL1        0.0000
     88 H           2.2227    5.3202    0.8530 H       1  UNL1        0.0000
     89 H           1.6607    4.6912   -0.6972 H       1  UNL1        0.0000
     90 H           1.7622    3.6225    0.7096 H       1  UNL1        0.0000
     91 H          -2.6565    5.2708    0.8046 H       1  UNL1        0.0000
     92 H          -3.7087    3.9331   -1.0576 H       1  UNL1        0.0000
     93 H          -4.4123    3.4790    0.4964 H       1  UNL1        0.0000
     94 H          -3.2112    2.4379   -0.2700 H       1  UNL1        0.0000
     95 H          -4.1514   -0.3003    2.1658 H       1  UNL1        0.0000
     96 H          -4.6720    0.8643    0.9853 H       1  UNL1        0.0000
     97 H          -6.2986   -1.6352    1.7526 H       1  UNL1        0.0000
     98 H          -6.8351   -0.3563    0.6579 H       1  UNL1        0.0000
     99 H          -6.5681   -0.0027    2.3638 H       1  UNL1        0.0000
    100 H          -4.9241   -2.9640    0.3749 H       1  UNL1        0.0000
    101 H          -4.1526   -2.4737    2.7214 H       1  UNL1        0.0000
    102 H          -2.4750   -2.4718    2.1688 H       1  UNL1        0.0000
    103 H          -3.4370   -3.9565    2.0902 H       1  UNL1        0.0000
    104 H          -5.7880   -1.2764   -0.9878 H       1  UNL1        0.0000
    105 H          -5.5463    0.5244   -2.6425 H       1  UNL1        0.0000
    106 H          -3.9465    0.9352   -2.0137 H       1  UNL1        0.0000
    107 H          -5.3890    1.1827   -1.0158 H       1  UNL1        0.0000
    108 H          -4.2636   -2.8877   -2.0651 H       1  UNL1        0.0000
    109 H          -3.2422   -1.5616   -2.6414 H       1  UNL1        0.0000
    110 H          -4.9058   -1.7288   -3.2229 H       1  UNL1        0.0000
    111 H           5.4262    2.5145   -0.0669 H       1  UNL1        0.0000
    112 H          -2.2882    3.7845    1.6634 H       1  UNL1        0.0000
    113 H          -3.2666   -3.0394   -0.1649 H       1  UNL1        0.0000
    114 H           1.7673   -5.4556    1.2488 H       1  UNL1        0.0000
@<TRIPOS>BOND
     1     2     8    1
     2     2    12    1
     3     2    10    1
     4     2    14    1
     5     2     1    1
     6     3    23    1
     7     3     9    1
     8     4     7    1
     9     5    31    1
    10     5    11    1
    11     6    39    1
    12     6    13    1
    13     7     1    1
    14     8     4    1
    15     9     1    1
    16    10     3    1
    17    11     1    1
    18    12     5    1
    19    13     1    1
    20    14     6    1
    21    15     4    1
    22    15    18    1
    23    16    47    1
    24    16    15    1
    25    17    16    1
    26    17    49    1
    27    18    20    1
    28    18    19    1
    29    19    55    1
    30    19    54    1
    31    20    58    1
    32    20    56    1
    33    21    15    1
    34    21   111    1
    35    21    59    1
    36    22    60    1
    37    22    21    1
    38    23    29    1
    39    24    23    1
    40    24    63    1
    41    24    64    1
    42    25    65    1
    43    25    24    1
    44    26    27    1
    45    26    23    1
    46    27    71    1
    47    27    70    1
    48    28    26    1
    49    28    74    1
    50    29    75    1
    51    29    30    1
    52    30    78    1
    53    30    76    1
    54    31    37    1
    55    31    34    1
    56    32    31    1
    57    33    32    1
    58    33    83    1
    59    33    82    1
    60    34    35    1
    61    35    86    1
    62    35    87    1
    63    35    85    1
    64    36    90    1
    65    36    34    1
    66    36    88    1
    67    37    91    1
    68    37   112    1
    69    38    93    1
    70    38    37    1
    71    39    42    1
    72    39    40    1
    73    40    41    1
    74    40    95    1
    75    41    97    1
    76    41    99    1
    77    42    43    1
    78    43   103    1
    79    43   102    1
    80    43   101    1
    81    44   104    1
    82    44    39    1
    83    45    44    1
    84    45   107    1
    85    46   108    1
    86    46    44    1
    87    48    16    1
    88    50    17    1
    89    51    17    1
    90    52    18    1
    91    53    19    1
    92    57    20    1
    93    61    22    1
    94    62    22    1
    95    66    25    1
    96    67    25    1
    97    68    26    1
    98    69    27    1
    99    72    28    1
   100    73    28    1
   101    77    30    1
   102    79    32    1
   103    80    32    1
   104    81    33    1
   105    84    34    1
   106    89    36    1
   107    92    38    1
   108    94    38    1
   109    96    40    1
   110    98    41    1
   111   100    42    1
   112   105    45    1
   113   106    45    1
   114   109    46    1
   115   110    46    1
   116   113    42    1
   117   114    29    1
