@<TRIPOS>MOLECULE
RhRh_ACyPentyl4_1_sp
 126 141 0 0 0
SMALL
GASTEIGER

@<TRIPOS>ATOM
      1 Rh          0.7323   -0.2420   -0.7074 Rh      1  UNL1        0.0000
      2 Rh         -0.2373   -0.4918    1.4649 Rh      1  UNL1        0.0000
      3 C           1.8773   -2.3669    0.8952 C.3     1  UNL1        0.0000
      4 C           2.0111    1.3212    1.3665 C.3     1  UNL1        0.0000
      5 C          -1.3941    1.6118   -0.1452 C.3     1  UNL1        0.0000
      6 C          -1.5347   -2.0268   -0.6187 C.3     1  UNL1        0.0000
      7 O           1.9560   -1.8215   -0.2508 O.3     1  UNL1        0.0000
      8 O           1.0115   -2.1083    1.7857 O.3     1  UNL1        0.0000
      9 O          -0.6724   -1.5477   -1.4174 O.3     1  UNL1        0.0000
     10 O          -1.6392   -1.7476    0.6159 O.3     1  UNL1        0.0000
     11 O          -1.3979    1.1474    1.0385 O.3     1  UNL1        0.0000
     12 O          -0.5703    1.3077   -1.0610 O.3     1  UNL1        0.0000
     13 O           1.2117    0.7774    2.1897 O.3     1  UNL1        0.0000
     14 O           2.0970    1.0586    0.1258 O.3     1  UNL1        0.0000
     15 N           4.0929   -3.1331    0.3652 N.am    1  UNL1        0.0000
     16 N          -3.7760   -2.3982   -1.5553 N.am    1  UNL1        0.0000
     17 N          -3.6102    2.3843    0.4149 N.am    1  UNL1        0.0000
     18 N           3.3536    3.2431    0.7830 N.am    1  UNL1        0.0000
     19 C           2.9258   -3.4572    1.1953 C.3     1  UNL1        0.0000
     20 C           2.3047   -4.8505    0.9051 C.3     1  UNL1        0.0000
     21 C           1.5544   -5.1823    2.1978 C.3     1  UNL1        0.0000
     22 C           2.5262   -4.7329    3.3010 C.3     1  UNL1        0.0000
     23 C           3.2810   -3.5142    2.7142 C.3     1  UNL1        0.0000
     24 C           4.7006   -1.8733    0.5587 C.2     1  UNL1        0.0000
     25 C           5.5086   -1.5929   -0.6509 C.ar    1  UNL1        0.0000
     26 C           6.3016   -0.4984   -0.9642 C.ar    1  UNL1        0.0000
     27 C           6.9101   -0.4990   -2.2254 C.ar    1  UNL1        0.0000
     28 C           6.7201   -1.5560   -3.1251 C.ar    1  UNL1        0.0000
     29 C           5.9043   -2.6469   -2.7995 C.ar    1  UNL1        0.0000
     30 C           5.3046   -2.6390   -1.5499 C.ar    1  UNL1        0.0000
     31 C           4.3404   -3.6042   -0.9478 C.2     1  UNL1        0.0000
     32 C          -2.5197   -3.0757   -1.2002 C.3     1  UNL1        0.0000
     33 C          -1.8801   -3.8006   -2.4049 C.3     1  UNL1        0.0000
     34 C          -0.8630   -4.7690   -1.7651 C.3     1  UNL1        0.0000
     35 C          -1.3465   -4.9778   -0.3012 C.3     1  UNL1        0.0000
     36 C          -2.6869   -4.2304   -0.1906 C.3     1  UNL1        0.0000
     37 C          -4.9302   -2.3127   -0.7468 C.2     1  UNL1        0.0000
     38 C          -5.8817   -1.4292   -1.4782 C.ar    1  UNL1        0.0000
     39 C          -7.1669   -1.0352   -1.1426 C.ar    1  UNL1        0.0000
     40 C          -7.8043   -0.1272   -1.9975 C.ar    1  UNL1        0.0000
     41 C          -7.1627    0.3601   -3.1431 C.ar    1  UNL1        0.0000
     42 C          -5.8640   -0.0480   -3.4716 C.ar    1  UNL1        0.0000
     43 C          -5.2475   -0.9492   -2.6190 C.ar    1  UNL1        0.0000
     44 C          -3.8763   -1.5215   -2.6643 C.2     1  UNL1        0.0000
     45 C          -2.4937    2.6286   -0.5057 C.3     1  UNL1        0.0000
     46 C          -1.9278    4.0701   -0.4656 C.3     1  UNL1        0.0000
     47 C          -1.1777    4.1976   -1.7960 C.3     1  UNL1        0.0000
     48 C          -2.0239    3.4061   -2.8201 C.3     1  UNL1        0.0000
     49 C          -2.9272    2.4590   -1.9918 C.3     1  UNL1        0.0000
     50 C          -4.0331    3.1574    1.5205 C.2     1  UNL1        0.0000
     51 C          -4.9934    2.2907    2.2694 C.ar    1  UNL1        0.0000
     52 C          -5.7311    2.5640    3.4101 C.ar    1  UNL1        0.0000
     53 C          -6.5247    1.5298    3.9231 C.ar    1  UNL1        0.0000
     54 C          -6.5593    0.2702    3.3112 C.ar    1  UNL1        0.0000
     55 C          -5.8097    0.0001    2.1590 C.ar    1  UNL1        0.0000
     56 C          -5.0407    1.0398    1.6548 C.ar    1  UNL1        0.0000
     57 C          -4.1347    1.0833    0.4850 C.2     1  UNL1        0.0000
     58 C           2.9507    2.4072    1.9216 C.3     1  UNL1        0.0000
     59 C           4.1453    1.7755    2.6819 C.3     1  UNL1        0.0000
     60 C           3.5462    1.3691    4.0330 C.3     1  UNL1        0.0000
     61 C           2.4819    2.4481    4.3544 C.3     1  UNL1        0.0000
     62 C           2.2479    3.2283    3.0379 C.3     1  UNL1        0.0000
     63 C           2.3739    3.9765    0.0780 C.2     1  UNL1        0.0000
     64 C           3.0119    4.4345   -1.1831 C.ar    1  UNL1        0.0000
     65 C           2.5161    5.2281   -2.2066 C.ar    1  UNL1        0.0000
     66 C           3.3569    5.4594   -3.3020 C.ar    1  UNL1        0.0000
     67 C           4.6442    4.9095   -3.3557 C.ar    1  UNL1        0.0000
     68 C           5.1330    4.1105   -2.3149 C.ar    1  UNL1        0.0000
     69 C           4.2921    3.8885   -1.2358 C.ar    1  UNL1        0.0000
     70 C           4.5116    3.0745   -0.0066 C.2     1  UNL1        0.0000
     71 H           1.6916   -4.8613    0.0038 H       1  UNL1        0.0000
     72 H           3.1215   -5.5582    0.7455 H       1  UNL1        0.0000
     73 H           1.2911   -6.2420    2.2578 H       1  UNL1        0.0000
     74 H           0.6273   -4.6050    2.2575 H       1  UNL1        0.0000
     75 H           3.2332   -5.5392    3.5240 H       1  UNL1        0.0000
     76 H           2.0127   -4.4858    4.2336 H       1  UNL1        0.0000
     77 H           4.3622   -3.6234    2.8138 H       1  UNL1        0.0000
     78 H           3.0045   -2.5804    3.1990 H       1  UNL1        0.0000
     79 H           6.4131    0.3313   -0.2759 H       1  UNL1        0.0000
     80 H           7.5353    0.3397   -2.5152 H       1  UNL1        0.0000
     81 H           7.2050   -1.5216   -4.0958 H       1  UNL1        0.0000
     82 H           5.7324   -3.4621   -3.4939 H       1  UNL1        0.0000
     83 H          -2.6823   -4.3516   -2.9071 H       1  UNL1        0.0000
     84 H          -1.4403   -3.1103   -3.1186 H       1  UNL1        0.0000
     85 H           0.1394   -4.3321   -1.7854 H       1  UNL1        0.0000
     86 H          -0.8118   -5.7083   -2.3214 H       1  UNL1        0.0000
     87 H          -1.4510   -6.0324   -0.0337 H       1  UNL1        0.0000
     88 H          -0.6313   -4.5437    0.4022 H       1  UNL1        0.0000
     89 H          -2.9154   -3.8835    0.8133 H       1  UNL1        0.0000
     90 H          -3.5164   -4.8575   -0.5292 H       1  UNL1        0.0000
     91 H          -5.3494    0.3267   -4.3497 H       1  UNL1        0.0000
     92 H          -1.3013    4.2609    0.4050 H       1  UNL1        0.0000
     93 H          -2.7738    4.7591   -0.4270 H       1  UNL1        0.0000
     94 H          -1.0446    5.2475   -2.0752 H       1  UNL1        0.0000
     95 H          -0.1863    3.7533   -1.6984 H       1  UNL1        0.0000
     96 H          -2.6389    4.0785   -3.4264 H       1  UNL1        0.0000
     97 H          -1.3873    2.8421   -3.5054 H       1  UNL1        0.0000
     98 H          -3.9771    2.7596   -2.0543 H       1  UNL1        0.0000
     99 H          -2.8604    1.4209   -2.3112 H       1  UNL1        0.0000
    100 H          -5.6821    3.5383    3.8840 H       1  UNL1        0.0000
    101 H          -7.1159    1.7024    4.8170 H       1  UNL1        0.0000
    102 H          -7.1727   -0.5135    3.7445 H       1  UNL1        0.0000
    103 H          -5.8064   -0.9795    1.6918 H       1  UNL1        0.0000
    104 H           4.8915    2.5651    2.8115 H       1  UNL1        0.0000
    105 H           4.6105    0.9534    2.1457 H       1  UNL1        0.0000
    106 H           3.0755    0.3869    3.9438 H       1  UNL1        0.0000
    107 H           4.3200    1.2916    4.8016 H       1  UNL1        0.0000
    108 H           2.8242    3.1278    5.1406 H       1  UNL1        0.0000
    109 H           1.5548    1.9885    4.7025 H       1  UNL1        0.0000
    110 H           1.1968    3.3987    2.8163 H       1  UNL1        0.0000
    111 H           2.7423    4.2039    3.0686 H       1  UNL1        0.0000
    112 H           6.1253    3.6738   -2.3448 H       1  UNL1        0.0000
    113 O           5.4927    2.4102    0.2610 O.2     1  UNL1        0.0000
    114 O           1.2305    4.1530    0.4496 O.2     1  UNL1        0.0000
    115 O          -3.8420    0.1903   -0.2871 O.2     1  UNL1        0.0000
    116 O          -3.6898    4.2863    1.7996 O.2     1  UNL1        0.0000
    117 O          -3.0037   -1.2879   -3.4744 O.2     1  UNL1        0.0000
    118 O          -5.1169   -2.8538    0.3256 O.2     1  UNL1        0.0000
    119 O           3.8579   -4.5872   -1.4690 O.2     1  UNL1        0.0000
    120 O           4.5258   -1.1760    1.5400 O.2     1  UNL1        0.0000
    121 H          -7.6501   -1.4109   -0.2474 H       1  UNL1        0.0000
    122 H          -8.8103    0.2094   -1.7679 H       1  UNL1        0.0000
    123 H          -7.6814    1.0673   -3.7827 H       1  UNL1        0.0000
    124 H           1.5154    5.6414   -2.1562 H       1  UNL1        0.0000
    125 H           3.0062    6.0720   -4.1264 H       1  UNL1        0.0000
    126 H           5.2695    5.1052   -4.2210 H       1  UNL1        0.0000
@<TRIPOS>BOND
     1     1     7    1
     2     1    14    1
     3     1     2    1
     4     2     8    1
     5     2    13    1
     6     3    19    1
     7     3     8    1
     8     4    58    1
     9     4    13    1
    10     5    11    1
    11     6    10    1
    12     7     3    1
    13     9     1    1
    14     9     6    1
    15    10     2    1
    16    11     2    1
    17    12     1    1
    18    12     5    1
    19    14     4    1
    20    15    24   am
    21    15    19    1
    22    16    32    1
    23    16    37   am
    24    17    57   am
    25    17    50   am
    26    18    58    1
    27    19    23    1
    28    20    19    1
    29    20    21    1
    30    21    74    1
    31    21    73    1
    32    21    22    1
    33    22    75    1
    34    22    76    1
    35    23    77    1
    36    23    78    1
    37    23    22    1
    38    24   120    2
    39    25    24    1
    40    26    25   ar
    41    26    79    1
    42    27    26   ar
    43    28    29   ar
    44    28    27   ar
    45    29    30   ar
    46    30    31    1
    47    30    25   ar
    48    31    15   am
    49    32     6    1
    50    32    36    1
    51    33    34    1
    52    33    32    1
    53    34    35    1
    54    35    36    1
    55    35    87    1
    56    35    88    1
    57    36    89    1
    58    37   118    2
    59    38    39   ar
    60    38    37    1
    61    39   121    1
    62    40   122    1
    63    40    39   ar
    64    41    40   ar
    65    42    41   ar
    66    42    43   ar
    67    43    38   ar
    68    44    43    1
    69    44    16   am
    70    45    46    1
    71    45     5    1
    72    45    17    1
    73    46    93    1
    74    46    92    1
    75    47    95    1
    76    47    46    1
    77    48    49    1
    78    48    47    1
    79    49    45    1
    80    50   116    2
    81    50    51    1
    82    51    52   ar
    83    52   100    1
    84    52    53   ar
    85    53   101    1
    86    54   102    1
    87    54    53   ar
    88    55    54   ar
    89    56    55   ar
    90    56    51   ar
    91    57    56    1
    92    58    59    1
    93    58    62    1
    94    59   104    1
    95    59    60    1
    96    60    61    1
    97    60   107    1
    98    61   109    1
    99    61   108    1
   100    62   111    1
   101    62    61    1
   102    63   114    2
   103    63    18   am
   104    64    63    1
   105    65   124    1
   106    65    64   ar
   107    66    65   ar
   108    67    66   ar
   109    67    68   ar
   110    68    69   ar
   111    69    64   ar
   112    69    70    1
   113    70   113    2
   114    70    18   am
   115    71    20    1
   116    72    20    1
   117    80    27    1
   118    81    28    1
   119    82    29    1
   120    83    33    1
   121    84    33    1
   122    85    34    1
   123    86    34    1
   124    90    36    1
   125    91    42    1
   126    94    47    1
   127    96    48    1
   128    97    48    1
   129    98    49    1
   130    99    49    1
   131   103    55    1
   132   105    59    1
   133   106    60    1
   134   110    62    1
   135   112    68    1
   136   115    57    2
   137   117    44    2
   138   119    31    2
   139   123    41    1
   140   125    66    1
   141   126    67    1
