@<TRIPOS>MOLECULE
RhRh_S-PhenTTL4_12_sp
 180 199 0 0 0
SMALL
GASTEIGER

@<TRIPOS>ATOM
      1 Rh         -0.6559   -1.2760   -2.5888 Rh      1  UNL1        0.0000
      2 Rh         -1.0329   -0.6827   -0.3036 Rh      1  UNL1        0.0000
      3 C          -2.8868    0.5220   -2.1504 C.3     1  UNL1        0.0000
      4 C           1.2024   -2.4436   -0.7078 C.3     1  UNL1        0.0000
      5 C          -2.5539   -2.9661   -1.2313 C.3     1  UNL1        0.0000
      6 C           0.7673    1.0714   -1.7206 C.3     1  UNL1        0.0000
      7 O           0.9746   -2.3893   -1.9577 O.3     1  UNL1        0.0000
      8 O           0.5275   -1.8703    0.1959 O.3     1  UNL1        0.0000
      9 O           0.5286    0.3825   -2.7576 O.3     1  UNL1        0.0000
     10 O           0.2679    0.8876   -0.5680 O.3     1  UNL1        0.0000
     11 O          -2.2999   -0.1239   -3.0712 O.3     1  UNL1        0.0000
     12 O          -2.6240    0.4580   -0.9109 O.3     1  UNL1        0.0000
     13 O          -1.9391   -2.8697   -2.3349 O.3     1  UNL1        0.0000
     14 O          -2.3011   -2.2991   -0.1786 O.3     1  UNL1        0.0000
     15 N           3.4631   -2.6783    0.3478 N.am    1  UNL1        0.0000
     16 N           2.9711    1.9058   -1.0993 N.am    1  UNL1        0.0000
     17 N          -3.9054    2.6547   -1.6721 N.am    1  UNL1        0.0000
     18 N          -4.6019   -3.5188   -0.0757 N.am    1  UNL1        0.0000
     19 C           2.3190   -3.3807   -0.2464 C.3     1  UNL1        0.0000
     20 C           3.4961   -1.5900    1.2495 C.2     1  UNL1        0.0000
     21 C           4.9342   -1.4085    1.6194 C.ar    1  UNL1        0.0000
     22 C           5.5084   -0.4347    2.4848 C.ar    1  UNL1        0.0000
     23 C           6.9204   -0.5058    2.7041 C.ar    1  UNL1        0.0000
     24 C           7.7180   -1.5544    2.0703 C.ar    1  UNL1        0.0000
     25 C           7.0841   -2.4968    1.1759 C.ar    1  UNL1        0.0000
     26 C           5.6783   -2.3565    0.9804 C.ar    1  UNL1        0.0000
     27 C           4.7703   -3.1360    0.0896 C.2     1  UNL1        0.0000
     28 C           1.7534   -4.5291    0.6640 C.3     1  UNL1        0.0000
     29 C           2.7964   -5.6580    0.7434 C.3     1  UNL1        0.0000
     30 C           1.4366   -4.0449    2.0877 C.3     1  UNL1        0.0000
     31 C           0.4729   -5.0798    0.0051 C.3     1  UNL1        0.0000
     32 C           1.7435    2.2515   -1.8175 C.3     1  UNL1        0.0000
     33 C           3.7659    0.7749   -1.3456 C.2     1  UNL1        0.0000
     34 C           5.1009    1.0778   -0.7513 C.ar    1  UNL1        0.0000
     35 C           6.3295    0.3829   -0.9323 C.ar    1  UNL1        0.0000
     36 C           7.4890    0.9344   -0.3036 C.ar    1  UNL1        0.0000
     37 C           7.3751    2.1336    0.5185 C.ar    1  UNL1        0.0000
     38 C           6.1174    2.8057    0.6482 C.ar    1  UNL1        0.0000
     39 C           5.0040    2.2433   -0.0404 C.ar    1  UNL1        0.0000
     40 C           3.6278    2.7996   -0.2376 C.2     1  UNL1        0.0000
     41 C           2.0300    2.8437   -3.2349 C.3     1  UNL1        0.0000
     42 C           2.7799    1.8743   -4.1651 C.3     1  UNL1        0.0000
     43 C           0.6966    3.2561   -3.8829 C.3     1  UNL1        0.0000
     44 C           2.8908    4.1096   -3.0539 C.3     1  UNL1        0.0000
     45 C          -4.0486    1.4624   -2.5100 C.3     1  UNL1        0.0000
     46 C          -2.6705    3.2168   -1.3142 C.2     1  UNL1        0.0000
     47 C          -2.9421    4.1331   -0.1722 C.ar    1  UNL1        0.0000
     48 C          -2.0170    4.8808    0.6103 C.ar    1  UNL1        0.0000
     49 C          -2.5514    5.6728    1.6749 C.ar    1  UNL1        0.0000
     50 C          -3.9936    5.7207    1.8984 C.ar    1  UNL1        0.0000
     51 C          -4.8779    4.9409    1.0854 C.ar    1  UNL1        0.0000
     52 C          -4.2884    4.1302    0.0722 C.ar    1  UNL1        0.0000
     53 C          -4.9256    3.1283   -0.8352 C.2     1  UNL1        0.0000
     54 C          -4.2946    1.7714   -4.0139 C.3     1  UNL1        0.0000
     55 C          -3.0550    2.3631   -4.7030 C.3     1  UNL1        0.0000
     56 C          -4.7342    0.4734   -4.7183 C.3     1  UNL1        0.0000
     57 C          -5.4509    2.7855   -4.1026 C.3     1  UNL1        0.0000
     58 C          -3.6794   -4.0014   -1.0970 C.3     1  UNL1        0.0000
     59 C          -5.0862   -2.2021    0.0140 C.2     1  UNL1        0.0000
     60 C          -5.5988   -2.0462    1.4079 C.ar    1  UNL1        0.0000
     61 C          -6.1774   -0.9008    2.0284 C.ar    1  UNL1        0.0000
     62 C          -6.5489   -1.0196    3.4066 C.ar    1  UNL1        0.0000
     63 C          -6.3578   -2.2819    4.1138 C.ar    1  UNL1        0.0000
     64 C          -5.7619   -3.3984    3.4463 C.ar    1  UNL1        0.0000
     65 C          -5.3902   -3.2195    2.0822 C.ar    1  UNL1        0.0000
     66 C          -4.7001   -4.1704    1.1665 C.2     1  UNL1        0.0000
     67 C          -4.3570   -4.5096   -2.4062 C.3     1  UNL1        0.0000
     68 C          -3.3484   -5.3905   -3.1693 C.3     1  UNL1        0.0000
     69 C          -5.5521   -5.3884   -1.9925 C.3     1  UNL1        0.0000
     70 C          -4.8495   -3.3710   -3.3143 C.3     1  UNL1        0.0000
     71 C          -4.5759    6.5190    2.9087 C.ar    1  UNL1        0.0000
     72 C          -6.2761    5.0010    1.2882 C.ar    1  UNL1        0.0000
     73 C          -1.6293    6.3764    2.4821 C.ar    1  UNL1        0.0000
     74 C          -0.6213    4.8099    0.3975 C.ar    1  UNL1        0.0000
     75 C           0.2479    5.5007    1.2146 C.ar    1  UNL1        0.0000
     76 C          -0.2668    6.2920    2.2592 C.ar    1  UNL1        0.0000
     77 C          -6.8028    5.7939    2.2865 C.ar    1  UNL1        0.0000
     78 C          -5.9439    6.5522    3.1033 C.ar    1  UNL1        0.0000
     79 C          -6.3581    0.3211    1.3410 C.ar    1  UNL1        0.0000
     80 C          -7.0848    0.1258    4.0371 C.ar    1  UNL1        0.0000
     81 C          -6.8851    1.4145    1.9950 C.ar    1  UNL1        0.0000
     82 C          -7.2457    1.3146    3.3505 C.ar    1  UNL1        0.0000
     83 C          -6.7362   -2.4592    5.4638 C.ar    1  UNL1        0.0000
     84 C          -5.5571   -4.6190    4.1308 C.ar    1  UNL1        0.0000
     85 C          -5.9384   -4.7474    5.4500 C.ar    1  UNL1        0.0000
     86 C          -6.5335   -3.6603    6.1164 C.ar    1  UNL1        0.0000
     87 C           4.7396    0.5894    3.0855 C.ar    1  UNL1        0.0000
     88 C           7.4962    0.4806    3.5358 C.ar    1  UNL1        0.0000
     89 C           9.1267   -1.6515    2.3207 C.2     1  UNL1        0.0000
     90 C           7.8099   -3.5411    0.5138 C.2     1  UNL1        0.0000
     91 C           5.3451    1.5348    3.8853 C.ar    1  UNL1        0.0000
     92 C           6.7313    1.4765    4.1105 C.ar    1  UNL1        0.0000
     93 C           9.1311   -3.4902    0.8578 C.2     1  UNL1        0.0000
     94 C           9.7042   -2.6835    1.6302 C.2     1  UNL1        0.0000
     95 C           6.4316   -0.7681   -1.7487 C.ar    1  UNL1        0.0000
     96 C           8.7228    0.2840   -0.5337 C.ar    1  UNL1        0.0000
     97 C           7.6569   -1.3646   -1.9529 C.ar    1  UNL1        0.0000
     98 C           8.8071   -0.8329   -1.3411 C.ar    1  UNL1        0.0000
     99 C           8.4818    2.6900    1.1982 C.ar    1  UNL1        0.0000
    100 C           6.0104    3.9810    1.4262 C.ar    1  UNL1        0.0000
    101 C           7.1172    4.4905    2.0723 C.ar    1  UNL1        0.0000
    102 C           8.3588    3.8386    1.9557 C.ar    1  UNL1        0.0000
    103 H           2.7208   -3.8385   -1.1517 H       1  UNL1        0.0000
    104 H           3.0702   -6.0285   -0.2483 H       1  UNL1        0.0000
    105 H           2.3872   -6.4912    1.3234 H       1  UNL1        0.0000
    106 H           3.7124   -5.3300    1.2413 H       1  UNL1        0.0000
    107 H           2.3427   -3.7144    2.6038 H       1  UNL1        0.0000
    108 H           1.0145   -4.8744    2.6642 H       1  UNL1        0.0000
    109 H           0.7252   -3.2196    2.0846 H       1  UNL1        0.0000
    110 H           0.1435   -5.9784    0.5347 H       1  UNL1        0.0000
    111 H           0.6421   -5.3483   -1.0430 H       1  UNL1        0.0000
    112 H          -0.3418   -4.3530    0.0511 H       1  UNL1        0.0000
    113 H           1.2894    3.0398   -1.2144 H       1  UNL1        0.0000
    114 H           2.8919    2.3434   -5.1482 H       1  UNL1        0.0000
    115 H           2.2439    0.9335   -4.2825 H       1  UNL1        0.0000
    116 H           3.7858    1.6533   -3.7981 H       1  UNL1        0.0000
    117 H           0.8976    3.7334   -4.8472 H       1  UNL1        0.0000
    118 H           0.1515    3.9663   -3.2568 H       1  UNL1        0.0000
    119 H           0.0478    2.3973   -4.0520 H       1  UNL1        0.0000
    120 H           3.0216    4.6010   -4.0227 H       1  UNL1        0.0000
    121 H           3.8886    3.8744   -2.6717 H       1  UNL1        0.0000
    122 H           2.4252    4.8235   -2.3681 H       1  UNL1        0.0000
    123 H          -4.9429    0.9565   -2.1281 H       1  UNL1        0.0000
    124 H          -3.2954    2.6014   -5.7444 H       1  UNL1        0.0000
    125 H          -2.2209    1.6610   -4.6925 H       1  UNL1        0.0000
    126 H          -2.7285    3.2839   -4.2134 H       1  UNL1        0.0000
    127 H          -5.0060    0.6927   -5.7557 H       1  UNL1        0.0000
    128 H          -5.6121    0.0384   -4.2279 H       1  UNL1        0.0000
    129 H          -3.9391   -0.2721   -4.7203 H       1  UNL1        0.0000
    130 H          -5.7157    2.9471   -5.1519 H       1  UNL1        0.0000
    131 H          -5.1684    3.7529   -3.6777 H       1  UNL1        0.0000
    132 H          -6.3395    2.4314   -3.5724 H       1  UNL1        0.0000
    133 H          -3.2138   -4.8785   -0.6292 H       1  UNL1        0.0000
    134 H          -3.8317   -5.8210   -4.0519 H       1  UNL1        0.0000
    135 H          -2.9993   -6.2205   -2.5442 H       1  UNL1        0.0000
    136 H          -2.4819   -4.8155   -3.4967 H       1  UNL1        0.0000
    137 H          -5.9815   -5.8665   -2.8781 H       1  UNL1        0.0000
    138 H          -6.3374   -4.7971   -1.5145 H       1  UNL1        0.0000
    139 H          -5.2479   -6.1743   -1.2932 H       1  UNL1        0.0000
    140 H          -5.5955   -2.7531   -2.8124 H       1  UNL1        0.0000
    141 H          -5.3037   -3.7978   -4.2147 H       1  UNL1        0.0000
    142 H          -4.0276   -2.7216   -3.6204 H       1  UNL1        0.0000
    143 H           7.3048   -4.2246   -0.1550 H       1  UNL1        0.0000
    144 H           9.6402   -0.9749    2.9900 H       1  UNL1        0.0000
    145 H           8.5629    0.4830    3.7185 H       1  UNL1        0.0000
    146 H           3.6751    0.6117    2.8910 H       1  UNL1        0.0000
    147 H          -7.3691    0.0854    5.0813 H       1  UNL1        0.0000
    148 H          -7.1990   -1.6447    6.0072 H       1  UNL1        0.0000
    149 H          -5.0946   -5.4382    3.5939 H       1  UNL1        0.0000
    150 H          -6.0728    0.3852    0.2998 H       1  UNL1        0.0000
    151 H           9.6281    0.6616   -0.0757 H       1  UNL1        0.0000
    152 H           5.5318   -1.1616   -2.2048 H       1  UNL1        0.0000
    153 H          -1.9841    6.9875    3.3030 H       1  UNL1        0.0000
    154 H          -0.2594    4.1869   -0.4082 H       1  UNL1        0.0000
    155 H          -3.9459    7.1272    3.5459 H       1  UNL1        0.0000
    156 H          -6.9155    4.4242    0.6314 H       1  UNL1        0.0000
    157 O          -4.2640   -5.2850    1.3884 O.2     1  UNL1        0.0000
    158 O          -5.0654   -1.3909   -0.8933 O.2     1  UNL1        0.0000
    159 O          -1.6151    2.9719   -1.8673 O.2     1  UNL1        0.0000
    160 O          -6.0806    2.7411   -0.8659 O.2     1  UNL1        0.0000
    161 O           3.3933   -0.2369   -1.9079 O.2     1  UNL1        0.0000
    162 O           3.1433    3.8282    0.1981 O.2     1  UNL1        0.0000
    163 O           5.0551   -3.9991   -0.7202 O.2     1  UNL1        0.0000
    164 O           2.5558   -0.9374    1.6476 O.2     1  UNL1        0.0000
    165 H           9.4499    2.2088    1.1358 H       1  UNL1        0.0000
    166 H           1.3172    5.4125    1.0555 H       1  UNL1        0.0000
    167 H           0.4131    6.8382    2.9059 H       1  UNL1        0.0000
    168 H          -7.8768    5.8396    2.4364 H       1  UNL1        0.0000
    169 H          -6.3577    7.1774    3.8883 H       1  UNL1        0.0000
    170 H           5.0431    4.4632    1.4954 H       1  UNL1        0.0000
    171 H           7.0319    5.3929    2.6693 H       1  UNL1        0.0000
    172 H           9.2292    4.2392    2.4662 H       1  UNL1        0.0000
    173 H           7.7314   -2.2504   -2.5745 H       1  UNL1        0.0000
    174 H           9.7680   -1.3139   -1.4891 H       1  UNL1        0.0000
    175 H          -7.0093    2.3452    1.4577 H       1  UNL1        0.0000
    176 H          -7.6502    2.1810    3.8649 H       1  UNL1        0.0000
    177 H          -5.7812   -5.6851    5.9733 H       1  UNL1        0.0000
    178 H          -6.8371   -3.7635    7.1536 H       1  UNL1        0.0000
    179 H           4.7548    2.3282    4.3313 H       1  UNL1        0.0000
    180 H           7.2114    2.2303    4.7255 H       1  UNL1        0.0000
@<TRIPOS>BOND
     1     1    13    1
     2     1     7    1
     3     1     2    1
     4     2    14    1
     5     2     8    1
     6     3    45    1
     7     3    12    1
     8     4    19    1
     9     4     8    1
    10     5    58    1
    11     5    14    1
    12     6    32    1
    13     6    10    1
    14     7     4    1
    15     9     1    1
    16     9     6    1
    17    10     2    1
    18    11     1    1
    19    11     3    1
    20    12     2    1
    21    13     5    1
    22    15    20   am
    23    16    40   am
    24    17    46   am
    25    17    53   am
    26    18    59   am
    27    18    66   am
    28    19   103    1
    29    19    15    1
    30    19    28    1
    31    20    21    1
    32    20   164    2
    33    21    22   ar
    34    22    23   ar
    35    22    87   ar
    36    23    88   ar
    37    24    89    1
    38    24    23   ar
    39    25    24   ar
    40    26    25   ar
    41    26    21   ar
    42    27    15   am
    43    27    26    1
    44    28    29    1
    45    28    30    1
    46    29   106    1
    47    29   105    1
    48    30   107    1
    49    30   108    1
    50    31   112    1
    51    31   110    1
    52    31    28    1
    53    32   113    1
    54    32    16    1
    55    33    16   am
    56    33    34    1
    57    34    39   ar
    58    35    34   ar
    59    35    36   ar
    60    36    37   ar
    61    37    38   ar
    62    37    99   ar
    63    38   100   ar
    64    39    38   ar
    65    40    39    1
    66    40   162    2
    67    41    44    1
    68    41    32    1
    69    42   116    1
    70    42    41    1
    71    43   118    1
    72    43    41    1
    73    44   121    1
    74    44   122    1
    75    45   123    1
    76    45    17    1
    77    46    47    1
    78    47    52   ar
    79    47    48   ar
    80    48    49   ar
    81    49    50   ar
    82    49    73   ar
    83    50    71   ar
    84    51    72   ar
    85    51    50   ar
    86    52    51   ar
    87    53    52    1
    88    54    45    1
    89    55   125    1
    90    55   126    1
    91    55    54    1
    92    56   128    1
    93    56    54    1
    94    57    54    1
    95    57   131    1
    96    57   132    1
    97    58   133    1
    98    58    18    1
    99    59    60    1
   100    60    61   ar
   101    60    65   ar
   102    61    62   ar
   103    62    80   ar
   104    62    63   ar
   105    63    83   ar
   106    64    63   ar
   107    64    84   ar
   108    65    64   ar
   109    66   157    2
   110    66    65    1
   111    67    69    1
   112    67    58    1
   113    68   135    1
   114    68    67    1
   115    69   138    1
   116    69   139    1
   117    70   140    1
   118    70    67    1
   119    71    78   ar
   120    71   155    1
   121    72    77   ar
   122    73   153    1
   123    74    48   ar
   124    74    75   ar
   125    75    76   ar
   126    76    73   ar
   127    76   167    1
   128    77   168    1
   129    77    78   ar
   130    78   169    1
   131    79    81   ar
   132    79    61   ar
   133    80   147    1
   134    81    82   ar
   135    82   176    1
   136    82    80   ar
   137    83   148    1
   138    83    86   ar
   139    84    85   ar
   140    85   177    1
   141    85    86   ar
   142    86   178    1
   143    87    91   ar
   144    88   145    1
   145    88    92   ar
   146    89   144    1
   147    90    93    2
   148    90    25    1
   149    91    92   ar
   150    91   179    1
   151    92   180    1
   152    93    94    1
   153    94    89    2
   154    95    35   ar
   155    96    36   ar
   156    96   151    1
   157    97    95   ar
   158    97    98   ar
   159    98    96   ar
   160    99   102   ar
   161   100   170    1
   162   100   101   ar
   163   101   171    1
   164   102   101   ar
   165   102   172    1
   166   104    29    1
   167   109    30    1
   168   111    31    1
   169   114    42    1
   170   115    42    1
   171   117    43    1
   172   119    43    1
   173   120    44    1
   174   124    55    1
   175   127    56    1
   176   129    56    1
   177   130    57    1
   178   134    68    1
   179   136    68    1
   180   137    69    1
   181   141    70    1
   182   142    70    1
   183   143    90    1
   184   146    87    1
   185   149    84    1
   186   150    79    1
   187   152    95    1
   188   154    74    1
   189   156    72    1
   190   158    59    2
   191   159    46    2
   192   160    53    2
   193   161    33    2
   194   163    27    2
   195   165    99    1
   196   166    75    1
   197   173    97    1
   198   174    98    1
   199   175    81    1
