@<TRIPOS>MOLECULE
RhRh_tri-pFPh-O2C4_5_sp
 150 165 0 0 0
SMALL
GASTEIGER

@<TRIPOS>ATOM
      1 Rh          0.0605   -0.1078   -1.2334 Rh      1  UNL1        0.0000
      2 Rh          0.0333   -0.1098    1.1533 Rh      1  UNL1        0.0000
      3 C          -1.9186    1.6629   -0.0195 C.3     1  UNL1        0.0000
      4 C          -1.7568   -2.0251   -0.0682 C.3     1  UNL1        0.0000
      5 C           2.0215   -1.8460   -0.0090 C.3     1  UNL1        0.0000
      6 C           1.8265    1.8495   -0.0414 C.3     1  UNL1        0.0000
      7 O           1.4864    1.3679   -1.1684 O.3     1  UNL1        0.0000
      8 O           1.4230    1.4217    1.0839 O.3     1  UNL1        0.0000
      9 O           1.5630   -1.5172   -1.1474 O.3     1  UNL1        0.0000
     10 O           1.5467   -1.4773    1.1097 O.3     1  UNL1        0.0000
     11 O          -1.3351   -1.6000   -1.1907 O.3     1  UNL1        0.0000
     12 O          -1.3567   -1.6118    1.0614 O.3     1  UNL1        0.0000
     13 O          -1.4573    1.3107   -1.1489 O.3     1  UNL1        0.0000
     14 O          -1.4859    1.2487    1.1024 O.3     1  UNL1        0.0000
     15 F           6.0820   -3.4611   -4.7740 F       1  UNL1        0.0000
     16 F           7.4877   -0.9172    3.2934 F       1  UNL1        0.0000
     17 F           0.2686   -7.2412    2.0753 F       1  UNL1        0.0000
     18 F           4.9162    3.9458    5.1070 F       1  UNL1        0.0000
     19 F          -0.0388    7.7153   -1.7280 F       1  UNL1        0.0000
     20 F           6.7408    1.7528   -3.9461 F       1  UNL1        0.0000
     21 F          -6.5060    1.1142    4.2950 F       1  UNL1        0.0000
     22 F          -5.9549    2.9994   -4.8199 F       1  UNL1        0.0000
     23 F          -0.8343    7.7840    1.2828 F       1  UNL1        0.0000
     24 F          -7.5568   -0.0968   -1.4011 F       1  UNL1        0.0000
     25 F          -2.1301   -7.0656   -4.0638 F       1  UNL1        0.0000
     26 F          -2.7501   -5.5351    5.0230 F       1  UNL1        0.0000
     27 C           2.7909    3.0669   -0.0867 C.3     1  UNL1        0.0000
     28 C           3.4038    3.2925    1.3091 C.ar    1  UNL1        0.0000
     29 C           2.5525    3.5789    2.3901 C.ar    1  UNL1        0.0000
     30 C           3.0497    3.7963    3.6685 C.ar    1  UNL1        0.0000
     31 C           4.4260    3.7366    3.8693 C.ar    1  UNL1        0.0000
     32 C           5.3010    3.4818    2.8255 C.ar    1  UNL1        0.0000
     33 C           4.7801    3.2647    1.5459 C.ar    1  UNL1        0.0000
     34 C           3.8614    2.7476   -1.1483 C.ar    1  UNL1        0.0000
     35 C           4.1326    3.5969   -2.2225 C.ar    1  UNL1        0.0000
     36 C           5.1057    3.2710   -3.1702 C.ar    1  UNL1        0.0000
     37 C           5.8108    2.0856   -3.0274 C.ar    1  UNL1        0.0000
     38 C           5.5804    1.2230   -1.9614 C.ar    1  UNL1        0.0000
     39 C           4.5996    1.5604   -1.0355 C.ar    1  UNL1        0.0000
     40 C           1.9657    4.3101   -0.5057 C.ar    1  UNL1        0.0000
     41 C           0.8711    4.2266   -1.3776 C.ar    1  UNL1        0.0000
     42 C           0.2004    5.3709   -1.8010 C.ar    1  UNL1        0.0000
     43 C           0.6327    6.6086   -1.3500 C.ar    1  UNL1        0.0000
     44 C           1.7206    6.7346   -0.4974 C.ar    1  UNL1        0.0000
     45 C           2.3807    5.5802   -0.0821 C.ar    1  UNL1        0.0000
     46 C           3.2115   -2.8269    0.0749 C.3     1  UNL1        0.0000
     47 C           4.3043   -2.2815    1.0229 C.ar    1  UNL1        0.0000
     48 C           4.3054   -0.9859    1.5537 C.ar    1  UNL1        0.0000
     49 C           5.3773   -0.5144    2.3148 C.ar    1  UNL1        0.0000
     50 C           6.4480   -1.3606    2.5579 C.ar    1  UNL1        0.0000
     51 C           6.4767   -2.6595    2.0616 C.ar    1  UNL1        0.0000
     52 C           5.4075   -3.1048    1.2911 C.ar    1  UNL1        0.0000
     53 C           3.8935   -3.0339   -1.2880 C.ar    1  UNL1        0.0000
     54 C           4.3730   -4.2864   -1.6848 C.ar    1  UNL1        0.0000
     55 C           5.1094   -4.4407   -2.8604 C.ar    1  UNL1        0.0000
     56 C           5.3712   -3.3217   -3.6368 C.ar    1  UNL1        0.0000
     57 C           4.9234   -2.0579   -3.2679 C.ar    1  UNL1        0.0000
     58 C           4.1907   -1.9253   -2.0932 C.ar    1  UNL1        0.0000
     59 C           2.5203   -4.0954    0.6198 C.ar    1  UNL1        0.0000
     60 C           1.7204   -4.8634   -0.2375 C.ar    1  UNL1        0.0000
     61 C           0.9645   -5.9302    0.2420 C.ar    1  UNL1        0.0000
     62 C           1.0052   -6.2126    1.6005 C.ar    1  UNL1        0.0000
     63 C           1.7735   -5.4654    2.4829 C.ar    1  UNL1        0.0000
     64 C           2.5265   -4.4032    1.9842 C.ar    1  UNL1        0.0000
     65 C          -2.8905   -3.0852   -0.0949 C.3     1  UNL1        0.0000
     66 C          -4.1840   -2.2876   -0.4214 C.ar    1  UNL1        0.0000
     67 C          -5.3669   -2.4315    0.3116 C.ar    1  UNL1        0.0000
     68 C          -6.5135   -1.7053   -0.0209 C.ar    1  UNL1        0.0000
     69 C          -6.4684   -0.8385   -1.1022 C.ar    1  UNL1        0.0000
     70 C          -5.3298   -0.7132   -1.8880 C.ar    1  UNL1        0.0000
     71 C          -4.1986   -1.4429   -1.5443 C.ar    1  UNL1        0.0000
     72 C          -2.6588   -4.1070   -1.2222 C.ar    1  UNL1        0.0000
     73 C          -1.3878   -4.3906   -1.7317 C.ar    1  UNL1        0.0000
     74 C          -1.2007   -5.3843   -2.6922 C.ar    1  UNL1        0.0000
     75 C          -2.3024   -6.1035   -3.1351 C.ar    1  UNL1        0.0000
     76 C          -3.5791   -5.8542   -2.6466 C.ar    1  UNL1        0.0000
     77 C          -3.7463   -4.8534   -1.6930 C.ar    1  UNL1        0.0000
     78 C          -2.9190   -3.7786    1.2792 C.ar    1  UNL1        0.0000
     79 C          -3.2664   -3.0565    2.4339 C.ar    1  UNL1        0.0000
     80 C          -3.2233   -3.6428    3.6936 C.ar    1  UNL1        0.0000
     81 C          -2.8049   -4.9651    3.8016 C.ar    1  UNL1        0.0000
     82 C          -2.4393   -5.7066    2.6898 C.ar    1  UNL1        0.0000
     83 C          -2.5033   -5.1044    1.4321 C.ar    1  UNL1        0.0000
     84 C          -3.0722    2.7015    0.0636 C.3     1  UNL1        0.0000
     85 C          -2.4206    4.0789    0.3553 C.ar    1  UNL1        0.0000
     86 C          -1.3584    4.2011    1.2639 C.ar    1  UNL1        0.0000
     87 C          -0.8276    5.4459    1.5877 C.ar    1  UNL1        0.0000
     88 C          -1.3717    6.5797    1.0014 C.ar    1  UNL1        0.0000
     89 C          -2.4366    6.5029    0.1164 C.ar    1  UNL1        0.0000
     90 C          -2.9552    5.2478   -0.2004 C.ar    1  UNL1        0.0000
     91 C          -3.8632    2.7461   -1.2560 C.ar    1  UNL1        0.0000
     92 C          -3.2060    3.0461   -2.4614 C.ar    1  UNL1        0.0000
     93 C          -3.9008    3.1284   -3.6627 C.ar    1  UNL1        0.0000
     94 C          -5.2773    2.9198   -3.6567 C.ar    1  UNL1        0.0000
     95 C          -5.9644    2.6401   -2.4865 C.ar    1  UNL1        0.0000
     96 C          -5.2473    2.5572   -1.2905 C.ar    1  UNL1        0.0000
     97 C          -3.9785    2.2868    1.2401 C.ar    1  UNL1        0.0000
     98 C          -4.3932    0.9518    1.3582 C.ar    1  UNL1        0.0000
     99 C          -5.2411    0.5489    2.3835 C.ar    1  UNL1        0.0000
    100 C          -5.6844    1.4998    3.2966 C.ar    1  UNL1        0.0000
    101 C          -5.3077    2.8305    3.2025 C.ar    1  UNL1        0.0000
    102 C          -4.4521    3.2159    2.1680 C.ar    1  UNL1        0.0000
    103 H           1.4849    3.6305    2.2238 H       1  UNL1        0.0000
    104 H           2.3936    4.0112    4.5043 H       1  UNL1        0.0000
    105 H           6.3690    3.4610    3.0101 H       1  UNL1        0.0000
    106 H           5.4686    3.0767    0.7331 H       1  UNL1        0.0000
    107 H           3.5781    4.5193   -2.3369 H       1  UNL1        0.0000
    108 H           5.3133    3.9217   -4.0119 H       1  UNL1        0.0000
    109 H           6.1484    0.3048   -1.8729 H       1  UNL1        0.0000
    110 H           4.4206    0.8881   -0.2046 H       1  UNL1        0.0000
    111 H           0.5332    3.2648   -1.7365 H       1  UNL1        0.0000
    112 H          -0.6640    5.3094   -2.4510 H       1  UNL1        0.0000
    113 H           2.0245    7.7167   -0.1552 H       1  UNL1        0.0000
    114 H           3.2304    5.6719    0.5833 H       1  UNL1        0.0000
    115 H           3.4628   -0.3254    1.4077 H       1  UNL1        0.0000
    116 H           5.3759    0.4936    2.7141 H       1  UNL1        0.0000
    117 H           7.3284   -3.2966    2.2709 H       1  UNL1        0.0000
    118 H           5.4364   -4.1090    0.8833 H       1  UNL1        0.0000
    119 H           5.4799   -5.4106   -3.1721 H       1  UNL1        0.0000
    120 H           5.1556   -1.1984   -3.8869 H       1  UNL1        0.0000
    121 H           3.8474   -0.9409   -1.8074 H       1  UNL1        0.0000
    122 H           1.6877   -4.6225   -1.2941 H       1  UNL1        0.0000
    123 H           0.3408   -6.5221   -0.4168 H       1  UNL1        0.0000
    124 H           3.1122   -3.8005    2.6670 H       1  UNL1        0.0000
    125 H          -5.4032   -3.1090    1.1549 H       1  UNL1        0.0000
    126 H          -7.4265   -1.7995    0.5559 H       1  UNL1        0.0000
    127 H          -5.3291   -0.0431   -2.7377 H       1  UNL1        0.0000
    128 H          -3.3104   -1.3496   -2.1536 H       1  UNL1        0.0000
    129 H          -0.5278   -3.8339   -1.3896 H       1  UNL1        0.0000
    130 H          -0.2188   -5.5983   -3.0998 H       1  UNL1        0.0000
    131 H          -4.4182   -6.4334   -3.0144 H       1  UNL1        0.0000
    132 H          -4.7396   -4.6517   -1.3088 H       1  UNL1        0.0000
    133 H          -3.5537   -2.0158    2.3535 H       1  UNL1        0.0000
    134 H          -3.4933   -3.0885    4.5853 H       1  UNL1        0.0000
    135 H          -2.0874   -6.7238    2.8062 H       1  UNL1        0.0000
    136 H          -2.2098   -5.6833    0.5667 H       1  UNL1        0.0000
    137 H          -0.9454    3.3164    1.7302 H       1  UNL1        0.0000
    138 H           0.0106    5.5453    2.2668 H       1  UNL1        0.0000
    139 H          -3.7875    5.1842   -0.8896 H       1  UNL1        0.0000
    140 H          -2.1382    3.2195   -2.4576 H       1  UNL1        0.0000
    141 H          -3.3967    3.3569   -4.5949 H       1  UNL1        0.0000
    142 H          -7.0335    2.4664   -2.5106 H       1  UNL1        0.0000
    143 H          -5.7876    2.3313   -0.3812 H       1  UNL1        0.0000
    144 H          -4.0575    0.2124    0.6409 H       1  UNL1        0.0000
    145 H          -5.5652   -0.4804    2.4730 H       1  UNL1        0.0000
    146 H          -4.1532    4.2539    2.0947 H       1  UNL1        0.0000
    147 H           4.1751   -5.1602   -1.0756 H       1  UNL1        0.0000
    148 H          -2.8316    7.4084   -0.3287 H       1  UNL1        0.0000
    149 H          -5.6758    3.5469    3.9279 H       1  UNL1        0.0000
    150 H           1.7689   -5.7093    3.5389 H       1  UNL1        0.0000
@<TRIPOS>BOND
     1     1    11    1
     2     1     7    1
     3     1    13    1
     4     1     9    1
     5     1     2    1
     6     3    84    1
     7     3    14    1
     8     4    12    1
     9     5    46    1
    10     5    10    1
    11     6     8    1
    12     7     6    1
    13     8     2    1
    14     9     5    1
    15    10     2    1
    16    11     4    1
    17    12     2    1
    18    13     3    1
    19    14     2    1
    20    15    56    1
    21    19    43    1
    22    20    37    1
    23    22    94    1
    24    24    69    1
    25    25    75    1
    26    27     6    1
    27    27    28    1
    28    28    33   ar
    29    28    29   ar
    30    29    30   ar
    31    30    31   ar
    32    30   104    1
    33    31    18    1
    34    32   105    1
    35    32    31   ar
    36    33    32   ar
    37    34    39   ar
    38    34    27    1
    39    35    34   ar
    40    36    37   ar
    41    36    35   ar
    42    37    38   ar
    43    38   109    1
    44    38    39   ar
    45    39   110    1
    46    40    27    1
    47    40    45   ar
    48    41    40   ar
    49    42    41   ar
    50    42    43   ar
    51    43    44   ar
    52    44   113    1
    53    44    45   ar
    54    45   114    1
    55    46    59    1
    56    46    47    1
    57    47    52   ar
    58    47    48   ar
    59    48    49   ar
    60    49    50   ar
    61    49   116    1
    62    50    16    1
    63    51   117    1
    64    51    50   ar
    65    52    51   ar
    66    53    46    1
    67    54    53   ar
    68    54   147    1
    69    55    54   ar
    70    56    57   ar
    71    56    55   ar
    72    57    58   ar
    73    58   121    1
    74    58    53   ar
    75    59    64   ar
    76    60    61   ar
    77    60    59   ar
    78    61    62   ar
    79    62    17    1
    80    62    63   ar
    81    63   150    1
    82    64    63   ar
    83    64   124    1
    84    65     4    1
    85    65    78    1
    86    66    65    1
    87    66    67   ar
    88    67   125    1
    89    68    67   ar
    90    68   126    1
    91    69    68   ar
    92    70    71   ar
    93    70    69   ar
    94    71    66   ar
    95    72    65    1
    96    73   129    1
    97    73    72   ar
    98    74    73   ar
    99    75    74   ar
   100    75    76   ar
   101    76    77   ar
   102    77   132    1
   103    77    72   ar
   104    78    83   ar
   105    78    79   ar
   106    79    80   ar
   107    80    81   ar
   108    80   134    1
   109    81    26    1
   110    82   135    1
   111    82    81   ar
   112    83    82   ar
   113    84    85    1
   114    84    97    1
   115    85    86   ar
   116    86    87   ar
   117    86   137    1
   118    87   138    1
   119    88    23    1
   120    88    87   ar
   121    89    88   ar
   122    90    89   ar
   123    90    85   ar
   124    91    84    1
   125    92   140    1
   126    92    91   ar
   127    93    94   ar
   128    93    92   ar
   129    94    95   ar
   130    95    96   ar
   131    96    91   ar
   132    96   143    1
   133    97    98   ar
   134    97   102   ar
   135    98    99   ar
   136    99   145    1
   137    99   100   ar
   138   100    21    1
   139   101   100   ar
   140   101   149    1
   141   102   101   ar
   142   103    29    1
   143   106    33    1
   144   107    35    1
   145   108    36    1
   146   111    41    1
   147   112    42    1
   148   115    48    1
   149   118    52    1
   150   119    55    1
   151   120    57    1
   152   122    60    1
   153   123    61    1
   154   127    70    1
   155   128    71    1
   156   130    74    1
   157   131    76    1
   158   133    79    1
   159   136    83    1
   160   139    90    1
   161   141    93    1
   162   142    95    1
   163   144    98    1
   164   146   102    1
   165   148    89    1
