@<TRIPOS>MOLECULE
RhRh_Ad-O2_D2_sp
 114 129 0 0 0
SMALL
GASTEIGER

@<TRIPOS>ATOM
      1 Rh         -0.0001   -0.0000   -1.1939 Rh      1  UNL1        0.0000
      2 Rh         -0.0001    0.0000    1.1939 Rh      1  UNL1        0.0000
      3 C          -1.8614   -1.8702    0.0048 C.3     1  UNL1        0.0000
      4 C           1.8613    1.8701    0.0048 C.3     1  UNL1        0.0000
      5 C           1.8700   -1.8614   -0.0048 C.3     1  UNL1        0.0000
      6 C          -1.8702    1.8615   -0.0048 C.3     1  UNL1        0.0000
      7 O          -1.4563    1.4487   -1.1350 O.3     1  UNL1        0.0000
      8 O          -1.4556    1.4494    1.1284 O.3     1  UNL1        0.0000
      9 O           1.4554   -1.4494    1.1284 O.3     1  UNL1        0.0000
     10 O           1.4562   -1.4488   -1.1350 O.3     1  UNL1        0.0000
     11 O          -1.4488   -1.4562   -1.1284 O.3     1  UNL1        0.0000
     12 O          -1.4494   -1.4556    1.1349 O.3     1  UNL1        0.0000
     13 O           1.4493    1.4556    1.1350 O.3     1  UNL1        0.0000
     14 O           1.4486    1.4562   -1.1284 O.3     1  UNL1        0.0000
     15 C          -5.6854    3.8849   -0.5654 C.3     1  UNL1        0.0000
     16 C          -4.4616    4.4412   -1.3167 C.3     1  UNL1        0.0000
     17 C          -5.2699    3.4690    0.8575 C.3     1  UNL1        0.0000
     18 C          -4.1821    2.3842    0.7799 C.3     1  UNL1        0.0000
     19 C          -3.3720    3.3568   -1.4005 C.3     1  UNL1        0.0000
     20 C          -2.9470    2.9333    0.0190 C.3     1  UNL1        0.0000
     21 C          -2.4040    4.1706    0.7806 C.3     1  UNL1        0.0000
     22 C          -3.9114    5.6673   -0.5647 C.3     1  UNL1        0.0000
     23 C          -4.7165    4.6938    1.6099 C.3     1  UNL1        0.0000
     24 C          -3.4941    5.2533    0.8582 C.3     1  UNL1        0.0000
     25 C           4.1704    2.4038   -0.7808 C.3     1  UNL1        0.0000
     26 C           5.2533    3.4936   -0.8584 C.3     1  UNL1        0.0000
     27 C           2.9332    2.9469   -0.0190 C.3     1  UNL1        0.0000
     28 C           3.3570    3.3716    1.4005 C.3     1  UNL1        0.0000
     29 C           5.6675    3.9107    0.5645 C.3     1  UNL1        0.0000
     30 C           4.4416    4.4610    1.3167 C.3     1  UNL1        0.0000
     31 C           3.8854    5.6850    0.5656 C.3     1  UNL1        0.0000
     32 C           4.6939    4.7162   -1.6099 C.3     1  UNL1        0.0000
     33 C           2.3843    4.1821   -0.7797 C.3     1  UNL1        0.0000
     34 C           3.4693    5.2698   -0.8573 C.3     1  UNL1        0.0000
     35 C           4.1820   -2.3839    0.7799 C.3     1  UNL1        0.0000
     36 C           5.2700   -3.4686    0.8575 C.3     1  UNL1        0.0000
     37 C           2.9470   -2.9331    0.0190 C.3     1  UNL1        0.0000
     38 C           3.3720   -3.3566   -1.4005 C.3     1  UNL1        0.0000
     39 C           5.6855   -3.8845   -0.5654 C.3     1  UNL1        0.0000
     40 C           4.4617   -4.4409   -1.3167 C.3     1  UNL1        0.0000
     41 C           3.9117   -5.6671   -0.5647 C.3     1  UNL1        0.0000
     42 C           4.7167   -4.6935    1.6099 C.3     1  UNL1        0.0000
     43 C           2.4042   -4.1706    0.7806 C.3     1  UNL1        0.0000
     44 C           3.4943   -5.2531    0.8582 C.3     1  UNL1        0.0000
     45 C          -4.1706   -2.4040   -0.7807 C.3     1  UNL1        0.0000
     46 C          -5.2533   -3.4940   -0.8583 C.3     1  UNL1        0.0000
     47 C          -2.9333   -2.9470   -0.0191 C.3     1  UNL1        0.0000
     48 C          -3.3569   -3.3718    1.4005 C.3     1  UNL1        0.0000
     49 C          -5.6674   -3.9111    0.5646 C.3     1  UNL1        0.0000
     50 C          -4.4414   -4.4613    1.3168 C.3     1  UNL1        0.0000
     51 C          -3.8852   -5.6853    0.5656 C.3     1  UNL1        0.0000
     52 C          -4.6938   -4.7165   -1.6098 C.3     1  UNL1        0.0000
     53 C          -2.3842   -4.1822   -0.7797 C.3     1  UNL1        0.0000
     54 C          -3.4691   -5.2700   -0.8574 C.3     1  UNL1        0.0000
     55 H          -6.0968    3.0223   -1.1044 H       1  UNL1        0.0000
     56 H          -6.4765    4.6437   -0.5193 H       1  UNL1        0.0000
     57 H          -4.7544    4.7331   -2.3322 H       1  UNL1        0.0000
     58 H          -6.1377    3.0675    1.3946 H       1  UNL1        0.0000
     59 H          -4.5662    1.4978    0.2584 H       1  UNL1        0.0000
     60 H          -3.8775    2.0667    1.7817 H       1  UNL1        0.0000
     61 H          -2.5011    3.7299   -1.9496 H       1  UNL1        0.0000
     62 H          -3.7407    2.4844   -1.9501 H       1  UNL1        0.0000
     63 H          -2.0855    3.8672    1.7824 H       1  UNL1        0.0000
     64 H          -1.5193    4.5592    0.2596 H       1  UNL1        0.0000
     65 H          -4.6739    6.4548   -0.5186 H       1  UNL1        0.0000
     66 H          -3.0505    6.0831   -1.1032 H       1  UNL1        0.0000
     67 H          -5.4920    5.4655    1.6915 H       1  UNL1        0.0000
     68 H          -4.4330    4.4112    2.6313 H       1  UNL1        0.0000
     69 H          -3.0969    6.1227    1.3959 H       1  UNL1        0.0000
     70 H           4.5588    1.5190   -0.2600 H       1  UNL1        0.0000
     71 H           3.8668    2.0854   -1.7826 H       1  UNL1        0.0000
     72 H           6.1226    3.0963   -1.3962 H       1  UNL1        0.0000
     73 H           3.7299    2.5007    1.9495 H       1  UNL1        0.0000
     74 H           2.4847    3.7405    1.9502 H       1  UNL1        0.0000
     75 H           6.4551    4.6731    0.5184 H       1  UNL1        0.0000
     76 H           6.0832    3.0497    1.1029 H       1  UNL1        0.0000
     77 H           4.7336    4.7537    2.3323 H       1  UNL1        0.0000
     78 H           3.0229    6.0966    1.1047 H       1  UNL1        0.0000
     79 H           4.6444    6.4760    0.5195 H       1  UNL1        0.0000
     80 H           4.4112    4.4329   -2.6313 H       1  UNL1        0.0000
     81 H           5.4658    5.4916   -1.6915 H       1  UNL1        0.0000
     82 H           2.0667    3.8778   -1.7815 H       1  UNL1        0.0000
     83 H           1.4981    4.5664   -0.2581 H       1  UNL1        0.0000
     84 H           3.0679    6.1377   -1.3943 H       1  UNL1        0.0000
     85 H           4.5660   -1.4975    0.2584 H       1  UNL1        0.0000
     86 H           3.8774   -2.0665    1.7817 H       1  UNL1        0.0000
     87 H           6.1377   -3.0670    1.3946 H       1  UNL1        0.0000
     88 H           3.7406   -2.4842   -1.9501 H       1  UNL1        0.0000
     89 H           2.5012   -3.7298   -1.9496 H       1  UNL1        0.0000
     90 H           6.4766   -4.6432   -0.5193 H       1  UNL1        0.0000
     91 H           6.0968   -3.0218   -1.1044 H       1  UNL1        0.0000
     92 H           4.7546   -4.7327   -2.3322 H       1  UNL1        0.0000
     93 H           3.0508   -6.0830   -1.1032 H       1  UNL1        0.0000
     94 H           4.6743   -6.4545   -0.5186 H       1  UNL1        0.0000
     95 H           4.4332   -4.4109    2.6313 H       1  UNL1        0.0000
     96 H           5.4922   -5.4651    1.6915 H       1  UNL1        0.0000
     97 H           2.0856   -3.8672    1.7824 H       1  UNL1        0.0000
     98 H           1.5195   -4.5592    0.2596 H       1  UNL1        0.0000
     99 H           3.0972   -6.1226    1.3958 H       1  UNL1        0.0000
    100 H          -4.5590   -1.5193   -0.2599 H       1  UNL1        0.0000
    101 H          -3.8670   -2.0856   -1.7825 H       1  UNL1        0.0000
    102 H          -6.1227   -3.0968   -1.3960 H       1  UNL1        0.0000
    103 H          -3.7300   -2.5009    1.9495 H       1  UNL1        0.0000
    104 H          -2.4846   -3.7406    1.9502 H       1  UNL1        0.0000
    105 H          -6.4550   -4.6736    0.5185 H       1  UNL1        0.0000
    106 H          -6.0832   -3.0501    1.1030 H       1  UNL1        0.0000
    107 H          -4.7333   -4.7540    2.3323 H       1  UNL1        0.0000
    108 H          -3.0226   -6.0967    1.1047 H       1  UNL1        0.0000
    109 H          -4.6440   -6.4763    0.5195 H       1  UNL1        0.0000
    110 H          -4.4112   -4.4331   -2.6313 H       1  UNL1        0.0000
    111 H          -5.4656   -5.4919   -1.6914 H       1  UNL1        0.0000
    112 H          -2.0667   -3.8778   -1.7815 H       1  UNL1        0.0000
    113 H          -1.4979   -4.5663   -0.2582 H       1  UNL1        0.0000
    114 H          -3.0676   -6.1378   -1.3943 H       1  UNL1        0.0000
@<TRIPOS>BOND
     1     1     7    1
     2     1    10    1
     3     1    11    1
     4     1    14    1
     5     1     2    1
     6     3    11    1
     7     3    12    1
     8     4    14    1
     9     4    13    1
    10     5    10    1
    11     5    37    1
    12     5     9    1
    13     6     7    1
    14     6    20    1
    15     6     8    1
    16     8     2    1
    17     9     2    1
    18    12     2    1
    19    13     2    1
    20    15    56    1
    21    15    17    1
    22    16    57    1
    23    16    15    1
    24    16    22    1
    25    17    58    1
    26    17    23    1
    27    18    17    1
    28    18    60    1
    29    19    16    1
    30    20    19    1
    31    20    18    1
    32    20    21    1
    33    21    24    1
    34    21    63    1
    35    22    65    1
    36    22    24    1
    37    23    67    1
    38    23    68    1
    39    24    69    1
    40    24    23    1
    41    25    70    1
    42    26    72    1
    43    26    25    1
    44    26    29    1
    45    27    25    1
    46    27     4    1
    47    27    28    1
    48    28    73    1
    49    28    74    1
    50    29    76    1
    51    29    30    1
    52    30    28    1
    53    30    77    1
    54    31    78    1
    55    31    30    1
    56    32    26    1
    57    32    34    1
    58    33    83    1
    59    33    27    1
    60    34    84    1
    61    34    33    1
    62    34    31    1
    63    35    36    1
    64    35    86    1
    65    36    87    1
    66    36    42    1
    67    37    38    1
    68    37    35    1
    69    37    43    1
    70    38    40    1
    71    39    90    1
    72    39    36    1
    73    40    92    1
    74    40    39    1
    75    40    41    1
    76    41    94    1
    77    41    44    1
    78    42    96    1
    79    42    95    1
    80    43    44    1
    81    43    97    1
    82    44    99    1
    83    44    42    1
    84    45   100    1
    85    46   102    1
    86    46    45    1
    87    46    49    1
    88    47    45    1
    89    47     3    1
    90    47    48    1
    91    48   103    1
    92    48   104    1
    93    49   106    1
    94    49    50    1
    95    50    48    1
    96    50   107    1
    97    51   108    1
    98    51    50    1
    99    52    46    1
   100    52    54    1
   101    53   113    1
   102    53    47    1
   103    54   114    1
   104    54    53    1
   105    54    51    1
   106    55    15    1
   107    59    18    1
   108    61    19    1
   109    62    19    1
   110    64    21    1
   111    66    22    1
   112    71    25    1
   113    75    29    1
   114    79    31    1
   115    80    32    1
   116    81    32    1
   117    82    33    1
   118    85    35    1
   119    88    38    1
   120    89    38    1
   121    91    39    1
   122    93    41    1
   123    98    43    1
   124   101    45    1
   125   105    49    1
   126   109    51    1
   127   110    52    1
   128   111    52    1
   129   112    53    1
