@<TRIPOS>MOLECULE
RhRh_ACyPentyl4_10_sp
 126 141 0 0 0
SMALL
GASTEIGER

@<TRIPOS>ATOM
      1 Rh         -0.7147   -0.5464   -1.2578 Rh      1  UNL1        0.0000
      2 Rh         -0.3654    0.5269    0.8512 Rh      1  UNL1        0.0000
      3 C           1.3880   -1.7055    0.3280 C.3     1  UNL1        0.0000
      4 C           1.2148    1.6076   -1.3051 C.3     1  UNL1        0.0000
      5 C          -2.5266    1.6315   -0.7212 C.3     1  UNL1        0.0000
      6 C          -2.3153   -1.5996    0.9163 C.3     1  UNL1        0.0000
      7 O           0.8267   -1.8174   -0.8044 O.3     1  UNL1        0.0000
      8 O           1.0437   -0.9119    1.2595 O.3     1  UNL1        0.0000
      9 O          -2.0591   -1.7969   -0.3137 O.3     1  UNL1        0.0000
     10 O          -1.8077   -0.6990    1.6518 O.3     1  UNL1        0.0000
     11 O          -1.8472    1.8657    0.3282 O.3     1  UNL1        0.0000
     12 O          -2.2583    0.7636   -1.6071 O.3     1  UNL1        0.0000
     13 O           1.0529    1.7115   -0.0494 O.3     1  UNL1        0.0000
     14 O           0.6220    0.7787   -2.0622 O.3     1  UNL1        0.0000
     15 N           3.4675   -1.9312    1.5241 N.am    1  UNL1        0.0000
     16 N          -3.4011   -3.7522    0.7824 N.am    1  UNL1        0.0000
     17 N          -3.7044    3.6700   -0.1523 N.am    1  UNL1        0.0000
     18 N           3.5321    1.9484   -2.0146 N.am    1  UNL1        0.0000
     19 C           2.5722   -2.6462    0.6095 C.3     1  UNL1        0.0000
     20 C           3.2946   -3.0477   -0.7040 C.3     1  UNL1        0.0000
     21 C           2.5393   -4.2836   -1.2498 C.3     1  UNL1        0.0000
     22 C           1.5491   -4.7090   -0.1364 C.3     1  UNL1        0.0000
     23 C           2.0290   -3.9987    1.1365 C.3     1  UNL1        0.0000
     24 C           3.8762   -0.6354    1.1695 C.2     1  UNL1        0.0000
     25 C           4.6116   -0.0803    2.3299 C.ar    1  UNL1        0.0000
     26 C           5.2233    1.1534    2.5049 C.ar    1  UNL1        0.0000
     27 C           5.8380    1.3844    3.7428 C.ar    1  UNL1        0.0000
     28 C           5.8282    0.4149    4.7532 C.ar    1  UNL1        0.0000
     29 C           5.1959   -0.8210    4.5652 C.ar    1  UNL1        0.0000
     30 C           4.5912   -1.0437    3.3389 C.ar    1  UNL1        0.0000
     31 C           3.8249   -2.2326    2.8560 C.2     1  UNL1        0.0000
     32 C          -3.3678   -2.5110    1.5629 C.3     1  UNL1        0.0000
     33 C          -3.0668   -2.7607    3.0644 C.3     1  UNL1        0.0000
     34 C          -3.7009   -1.5790    3.8368 C.3     1  UNL1        0.0000
     35 C          -4.6029   -0.8296    2.8244 C.3     1  UNL1        0.0000
     36 C          -4.7320   -1.7711    1.6196 C.3     1  UNL1        0.0000
     37 C          -4.2130   -3.9853   -0.3545 C.2     1  UNL1        0.0000
     38 C          -3.6382   -5.1861   -1.0248 C.ar    1  UNL1        0.0000
     39 C          -4.0799   -5.8766   -2.1428 C.ar    1  UNL1        0.0000
     40 C          -3.3094   -6.9646   -2.5707 C.ar    1  UNL1        0.0000
     41 C          -2.1398   -7.3344   -1.8938 C.ar    1  UNL1        0.0000
     42 C          -1.7024   -6.6282   -0.7671 C.ar    1  UNL1        0.0000
     43 C          -2.4751   -5.5541   -0.3521 C.ar    1  UNL1        0.0000
     44 C          -2.2688   -4.5952    0.7635 C.2     1  UNL1        0.0000
     45 C          -3.8348    2.4128   -0.8955 C.3     1  UNL1        0.0000
     46 C          -4.2013    2.6217   -2.3877 C.3     1  UNL1        0.0000
     47 C          -4.9570    1.3458   -2.8341 C.3     1  UNL1        0.0000
     48 C          -5.2695    0.5470   -1.5446 C.3     1  UNL1        0.0000
     49 C          -5.0058    1.5220   -0.3907 C.3     1  UNL1        0.0000
     50 C          -2.8614    4.6986   -0.6262 C.2     1  UNL1        0.0000
     51 C          -2.6714    5.6429    0.5045 C.ar    1  UNL1        0.0000
     52 C          -1.9740    6.8398    0.5618 C.ar    1  UNL1        0.0000
     53 C          -1.9417    7.5030    1.7941 C.ar    1  UNL1        0.0000
     54 C          -2.5876    6.9721    2.9185 C.ar    1  UNL1        0.0000
     55 C          -3.2850    5.7600    2.8481 C.ar    1  UNL1        0.0000
     56 C          -3.3105    5.1126    1.6224 C.ar    1  UNL1        0.0000
     57 C          -3.9289    3.8118    1.2406 C.2     1  UNL1        0.0000
     58 C           2.2060    2.5903   -1.9826 C.3     1  UNL1        0.0000
     59 C           2.1799    3.9509   -1.2561 C.3     1  UNL1        0.0000
     60 C           0.8381    4.5609   -1.6982 C.3     1  UNL1        0.0000
     61 C           0.5327    3.9515   -3.0961 C.3     1  UNL1        0.0000
     62 C           1.6884    2.9727   -3.3865 C.3     1  UNL1        0.0000
     63 C           4.5761    2.1638   -1.0899 C.2     1  UNL1        0.0000
     64 C           5.6461    1.1870   -1.4364 C.ar    1  UNL1        0.0000
     65 C           6.8844    0.9797   -0.8502 C.ar    1  UNL1        0.0000
     66 C           7.6632   -0.0715   -1.3495 C.ar    1  UNL1        0.0000
     67 C           7.2049   -0.8754   -2.4011 C.ar    1  UNL1        0.0000
     68 C           5.9537   -0.6512   -2.9881 C.ar    1  UNL1        0.0000
     69 C           5.1936    0.3920   -2.4833 C.ar    1  UNL1        0.0000
     70 C           3.8284    0.8467   -2.8589 C.2     1  UNL1        0.0000
     71 H           3.3324   -2.2174   -1.4076 H       1  UNL1        0.0000
     72 H           4.3231   -3.3045   -0.4328 H       1  UNL1        0.0000
     73 H           3.2455   -5.0863   -1.4828 H       1  UNL1        0.0000
     74 H           2.0064   -4.0402   -2.1713 H       1  UNL1        0.0000
     75 H           1.5142   -5.7924    0.0092 H       1  UNL1        0.0000
     76 H           0.5379   -4.3824   -0.3829 H       1  UNL1        0.0000
     77 H           2.8569   -4.5380    1.5985 H       1  UNL1        0.0000
     78 H           1.2469   -3.8828    1.8878 H       1  UNL1        0.0000
     79 H           5.2043    1.9059    1.7229 H       1  UNL1        0.0000
     80 H           6.3258    2.3367    3.9256 H       1  UNL1        0.0000
     81 H           6.3122    0.6296    5.7009 H       1  UNL1        0.0000
     82 H           5.1691   -1.5762    5.3432 H       1  UNL1        0.0000
     83 H          -3.5510   -3.7054    3.3292 H       1  UNL1        0.0000
     84 H          -2.0011   -2.8761    3.2482 H       1  UNL1        0.0000
     85 H          -2.9293   -0.9142    4.2295 H       1  UNL1        0.0000
     86 H          -4.2769   -1.9499    4.6896 H       1  UNL1        0.0000
     87 H          -5.5851   -0.5791    3.2339 H       1  UNL1        0.0000
     88 H          -4.1324    0.1107    2.5272 H       1  UNL1        0.0000
     89 H          -4.9865   -1.2735    0.6857 H       1  UNL1        0.0000
     90 H          -5.5008   -2.5283    1.7976 H       1  UNL1        0.0000
     91 H          -0.7952   -6.8980   -0.2386 H       1  UNL1        0.0000
     92 H          -3.3243    2.8368   -2.9935 H       1  UNL1        0.0000
     93 H          -4.8529    3.4986   -2.4356 H       1  UNL1        0.0000
     94 H          -5.8722    1.6169   -3.3685 H       1  UNL1        0.0000
     95 H          -4.3461    0.7518   -3.5165 H       1  UNL1        0.0000
     96 H          -6.2948    0.1688   -1.5157 H       1  UNL1        0.0000
     97 H          -4.6078   -0.3190   -1.4677 H       1  UNL1        0.0000
     98 H          -5.8631    2.1831   -0.2322 H       1  UNL1        0.0000
     99 H          -4.7919    1.0426    0.5621 H       1  UNL1        0.0000
    100 H          -1.4722    7.2332   -0.3154 H       1  UNL1        0.0000
    101 H          -1.4045    8.4417    1.8841 H       1  UNL1        0.0000
    102 H          -2.5406    7.5091    3.8605 H       1  UNL1        0.0000
    103 H          -3.7822    5.3334    3.7124 H       1  UNL1        0.0000
    104 H           3.0224    4.5420   -1.6248 H       1  UNL1        0.0000
    105 H           2.2850    3.8559   -0.1789 H       1  UNL1        0.0000
    106 H           0.0517    4.2910   -0.9908 H       1  UNL1        0.0000
    107 H           0.8842    5.6529   -1.7169 H       1  UNL1        0.0000
    108 H           0.4540    4.7137   -3.8751 H       1  UNL1        0.0000
    109 H          -0.4243    3.4244   -3.0751 H       1  UNL1        0.0000
    110 H           1.3975    2.1047   -3.9718 H       1  UNL1        0.0000
    111 H           2.5116    3.4774   -3.9038 H       1  UNL1        0.0000
    112 H           5.5813   -1.2676   -3.7991 H       1  UNL1        0.0000
    113 O           3.1044    0.3809   -3.7124 O.2     1  UNL1        0.0000
    114 O           4.6082    2.9905   -0.1985 O.2     1  UNL1        0.0000
    115 O          -4.5076    3.0319    1.9669 O.2     1  UNL1        0.0000
    116 O          -2.3775    4.7600   -1.7395 O.2     1  UNL1        0.0000
    117 O          -1.3114   -4.5024    1.5072 O.2     1  UNL1        0.0000
    118 O          -5.1752   -3.3365   -0.7068 O.2     1  UNL1        0.0000
    119 O           3.5708   -3.2446    3.4744 O.2     1  UNL1        0.0000
    120 O           3.6237   -0.1187    0.0967 O.2     1  UNL1        0.0000
    121 H          -4.9832   -5.5744   -2.6614 H       1  UNL1        0.0000
    122 H          -3.6190   -7.5301   -3.4438 H       1  UNL1        0.0000
    123 H          -1.5628   -8.1803   -2.2536 H       1  UNL1        0.0000
    124 H           7.2252    1.6018   -0.0300 H       1  UNL1        0.0000
    125 H           8.6372   -0.2709   -0.9137 H       1  UNL1        0.0000
    126 H           7.8305   -1.6852   -2.7629 H       1  UNL1        0.0000
@<TRIPOS>BOND
     1     1     7    1
     2     1     9    1
     3     1     2    1
     4     2     8    1
     5     2    10    1
     6     3    19    1
     7     3     8    1
     8     4    13    1
     9     5    11    1
    10     6    32    1
    11     6    10    1
    12     7     3    1
    13     9     6    1
    14    11     2    1
    15    12     1    1
    16    12     5    1
    17    13     2    1
    18    14     4    1
    19    14     1    1
    20    15    31   am
    21    16    32    1
    22    17    57   am
    23    18    58    1
    24    18    63   am
    25    19    23    1
    26    19    15    1
    27    20    72    1
    28    20    19    1
    29    21    20    1
    30    21    22    1
    31    22    75    1
    32    22    23    1
    33    23    77    1
    34    23    78    1
    35    24    15   am
    36    24    25    1
    37    25    26   ar
    38    25    30   ar
    39    26    27   ar
    40    27    80    1
    41    27    28   ar
    42    28    81    1
    43    29    28   ar
    44    29    82    1
    45    30    29   ar
    46    31    30    1
    47    31   119    2
    48    32    36    1
    49    32    33    1
    50    33    84    1
    51    33    83    1
    52    33    34    1
    53    34    85    1
    54    34    86    1
    55    35    87    1
    56    35    34    1
    57    36    90    1
    58    36    35    1
    59    37    16   am
    60    38    37    1
    61    38    43   ar
    62    39    38   ar
    63    40    39   ar
    64    40    41   ar
    65    41    42   ar
    66    42    43   ar
    67    42    91    1
    68    43    44    1
    69    44    16   am
    70    44   117    2
    71    45     5    1
    72    45    49    1
    73    45    17    1
    74    46    45    1
    75    47    46    1
    76    47    48    1
    77    48    96    1
    78    48    97    1
    79    48    49    1
    80    49    98    1
    81    49    99    1
    82    50    17   am
    83    50    51    1
    84    51    52   ar
    85    51    56   ar
    86    52    53   ar
    87    53   101    1
    88    53    54   ar
    89    54   102    1
    90    55    54   ar
    91    55   103    1
    92    56    55   ar
    93    57    56    1
    94    57   115    2
    95    58     4    1
    96    58    59    1
    97    59   105    1
    98    60    59    1
    99    60   106    1
   100    61   109    1
   101    61    60    1
   102    62    61    1
   103    62    58    1
   104    63   114    2
   105    64    63    1
   106    64    65   ar
   107    65   124    1
   108    66   125    1
   109    66    65   ar
   110    67    66   ar
   111    68    69   ar
   112    68    67   ar
   113    69    64   ar
   114    70    69    1
   115    70    18   am
   116    71    20    1
   117    73    21    1
   118    74    21    1
   119    76    22    1
   120    79    26    1
   121    88    35    1
   122    89    36    1
   123    92    46    1
   124    93    46    1
   125    94    47    1
   126    95    47    1
   127   100    52    1
   128   104    59    1
   129   107    60    1
   130   108    61    1
   131   110    62    1
   132   111    62    1
   133   112    68    1
   134   113    70    2
   135   116    50    2
   136   118    37    2
   137   120    24    2
   138   121    39    1
   139   122    40    1
   140   123    41    1
   141   126    67    1
