@<TRIPOS>MOLECULE
RhRh_ACyPropyl4_24
 102 117 0 0 0
SMALL
GASTEIGER

@<TRIPOS>ATOM
      1 Rh          0.3230    0.5200    0.0625 Rh      1  UNL1        0.0000
      2 Rh         -0.9112   -0.3495   -1.7967 Rh      1  UNL1        0.0000
      3 C           1.5835    0.8812   -2.5041 C.3     1  UNL1        0.0000
      4 C           1.0095   -2.1785   -0.6455 C.3     1  UNL1        0.0000
      5 C          -2.1028   -0.8675    0.7760 C.3     1  UNL1        0.0000
      6 C          -1.8010    2.2252   -0.8599 C.3     1  UNL1        0.0000
      7 O           1.3149   -1.2591    0.1790 O.3     1  UNL1        0.0000
      8 O           0.2225   -2.0697   -1.6386 O.3     1  UNL1        0.0000
      9 O          -1.1402   -0.2231    1.2993 O.3     1  UNL1        0.0000
     10 O          -2.2474   -1.1354   -0.4618 O.3     1  UNL1        0.0000
     11 O          -2.0408    1.3700   -1.7726 O.3     1  UNL1        0.0000
     12 O          -0.7933    2.2354   -0.0833 O.3     1  UNL1        0.0000
     13 O           0.5171    0.4584   -3.0503 O.3     1  UNL1        0.0000
     14 O           1.7473    1.1413   -1.2693 O.3     1  UNL1        0.0000
     15 N           2.2998   -3.5881    0.8723 N.am    1  UNL1        0.0000
     16 N          -4.2604   -1.9980    1.0238 N.am    1  UNL1        0.0000
     17 N          -2.4672    4.2227    0.3860 N.am    1  UNL1        0.0000
     18 N           4.0090    0.9845   -2.6231 N.am    1  UNL1        0.0000
     19 C           1.6125   -3.5213   -0.3805 C.3     1  UNL1        0.0000
     20 C           0.8508   -4.7468   -0.8577 C.3     1  UNL1        0.0000
     21 C           2.1099   -4.3452   -1.5495 C.3     1  UNL1        0.0000
     22 C           3.6860   -3.4203    1.0409 C.2     1  UNL1        0.0000
     23 C           3.8874   -3.1587    2.4945 C.ar    1  UNL1        0.0000
     24 C           5.0578   -2.9460    3.2062 C.ar    1  UNL1        0.0000
     25 C           4.9409   -2.6998    4.5794 C.ar    1  UNL1        0.0000
     26 C           3.6880   -2.6759    5.2052 C.ar    1  UNL1        0.0000
     27 C           2.5121   -2.8965    4.4777 C.ar    1  UNL1        0.0000
     28 C           2.6393   -3.1348    3.1180 C.ar    1  UNL1        0.0000
     29 C           1.5958   -3.3769    2.0841 C.2     1  UNL1        0.0000
     30 C          -3.1783   -1.3481    1.6902 C.3     1  UNL1        0.0000
     31 C          -2.7780   -1.8199    3.0760 C.3     1  UNL1        0.0000
     32 C          -3.4788   -0.5123    2.9241 C.3     1  UNL1        0.0000
     33 C          -5.2125   -1.2793    0.2731 C.2     1  UNL1        0.0000
     34 C          -5.9674   -2.3020   -0.5036 C.ar    1  UNL1        0.0000
     35 C          -7.0432   -2.1533   -1.3654 C.ar    1  UNL1        0.0000
     36 C          -7.5442   -3.3097   -1.9752 C.ar    1  UNL1        0.0000
     37 C          -6.9769   -4.5648   -1.7206 C.ar    1  UNL1        0.0000
     38 C          -5.8906   -4.7037   -0.8482 C.ar    1  UNL1        0.0000
     39 C          -5.4020   -3.5525   -0.2500 C.ar    1  UNL1        0.0000
     40 C          -4.2634   -3.3731    0.6965 C.2     1  UNL1        0.0000
     41 C          -2.8208    3.2923   -0.6363 C.3     1  UNL1        0.0000
     42 C          -4.2854    2.8878   -0.7503 C.3     1  UNL1        0.0000
     43 C          -3.6791    3.7635   -1.7925 C.3     1  UNL1        0.0000
     44 C          -1.6725    5.3653    0.1508 C.2     1  UNL1        0.0000
     45 C          -1.2799    5.8606    1.5012 C.ar    1  UNL1        0.0000
     46 C          -0.5406    6.9768    1.8609 C.ar    1  UNL1        0.0000
     47 C          -0.3094    7.1833    3.2262 C.ar    1  UNL1        0.0000
     48 C          -0.8079    6.2941    4.1867 C.ar    1  UNL1        0.0000
     49 C          -1.5534    5.1696    3.8126 C.ar    1  UNL1        0.0000
     50 C          -1.7761    4.9738    2.4583 C.ar    1  UNL1        0.0000
     51 C          -2.5071    3.8818    1.7555 C.2     1  UNL1        0.0000
     52 C           2.7937    1.0715   -3.3704 C.3     1  UNL1        0.0000
     53 C           2.7180    1.9956   -4.5699 C.3     1  UNL1        0.0000
     54 C           2.7794    0.5169   -4.7780 C.3     1  UNL1        0.0000
     55 C           4.3165   -0.2232   -1.9522 C.2     1  UNL1        0.0000
     56 C           5.4126    0.1100   -1.0033 C.ar    1  UNL1        0.0000
     57 C           6.1187   -0.7050   -0.1297 C.ar    1  UNL1        0.0000
     58 C           7.0878   -0.0891    0.6721 C.ar    1  UNL1        0.0000
     59 C           7.3321    1.2877    0.5926 C.ar    1  UNL1        0.0000
     60 C           6.6125    2.0986   -0.2936 C.ar    1  UNL1        0.0000
     61 C           5.6534    1.4840   -1.0834 C.ar    1  UNL1        0.0000
     62 C           4.7203    2.0777   -2.0849 C.2     1  UNL1        0.0000
     63 H           0.8745   -5.5957   -0.1841 H       1  UNL1        0.0000
     64 H          -0.0990   -4.5500   -1.3393 H       1  UNL1        0.0000
     65 H           2.0446   -3.8544   -2.5130 H       1  UNL1        0.0000
     66 H           3.0192   -4.9050   -1.3740 H       1  UNL1        0.0000
     67 H           1.5356   -2.8790    4.9492 H       1  UNL1        0.0000
     68 H          -3.3301   -2.6739    3.4491 H       1  UNL1        0.0000
     69 H          -1.7110   -1.8377    3.2637 H       1  UNL1        0.0000
     70 H          -2.9228    0.4133    3.0096 H       1  UNL1        0.0000
     71 H          -4.5280   -0.4527    3.1891 H       1  UNL1        0.0000
     72 H          -7.4710   -1.1749   -1.5556 H       1  UNL1        0.0000
     73 H          -7.3864   -5.4423   -2.2109 H       1  UNL1        0.0000
     74 H          -5.4392   -5.6688   -0.6450 H       1  UNL1        0.0000
     75 H          -4.9383    3.3312   -0.0080 H       1  UNL1        0.0000
     76 H          -4.4765    1.8448   -0.9668 H       1  UNL1        0.0000
     77 H          -3.4386    3.3296   -2.7558 H       1  UNL1        0.0000
     78 H          -3.9113    4.8216   -1.7993 H       1  UNL1        0.0000
     79 H          -1.9430    4.4714    4.5455 H       1  UNL1        0.0000
     80 H           3.5958    2.6020   -4.7534 H       1  UNL1        0.0000
     81 H           1.7690    2.4986   -4.7178 H       1  UNL1        0.0000
     82 H           1.8766   -0.0051   -5.0697 H       1  UNL1        0.0000
     83 H           3.7126    0.0804   -5.1146 H       1  UNL1        0.0000
     84 H           5.9095   -1.7676   -0.0701 H       1  UNL1        0.0000
     85 H           8.0893    1.7322    1.2310 H       1  UNL1        0.0000
     86 H           6.7859    3.1670   -0.3623 H       1  UNL1        0.0000
     87 O           3.7439   -1.2760   -2.1405 O.2     1  UNL1        0.0000
     88 O           4.5853    3.2407   -2.4001 O.2     1  UNL1        0.0000
     89 O          -1.3936    5.8173   -0.9388 O.2     1  UNL1        0.0000
     90 O          -3.0371    2.8958    2.2221 O.2     1  UNL1        0.0000
     91 O          -5.3534   -0.0739    0.2830 O.2     1  UNL1        0.0000
     92 O          -3.4899   -4.2036    1.1200 O.2     1  UNL1        0.0000
     93 O           4.5287   -3.4981    0.1689 O.2     1  UNL1        0.0000
     94 O           0.3902   -3.3885    2.2015 O.2     1  UNL1        0.0000
     95 H           6.0220   -2.9678    2.7098 H       1  UNL1        0.0000
     96 H           5.8336   -2.5230    5.1709 H       1  UNL1        0.0000
     97 H           3.6302   -2.4811    6.2713 H       1  UNL1        0.0000
     98 H          -8.3841   -3.2349   -2.6585 H       1  UNL1        0.0000
     99 H          -0.1563    7.6544    1.1062 H       1  UNL1        0.0000
    100 H           0.2678    8.0444    3.5479 H       1  UNL1        0.0000
    101 H          -0.6096    6.4808    5.2374 H       1  UNL1        0.0000
    102 H           7.6616   -0.6891    1.3719 H       1  UNL1        0.0000
@<TRIPOS>BOND
     1     1     7    1
     2     1     9    1
     3     2    11    1
     4     2     8    1
     5     2    10    1
     6     2     1    1
     7     3    14    1
     8     4    19    1
     9     4     7    1
    10     5     9    1
    11     5    30    1
    12     6    41    1
    13     6    12    1
    14     8     4    1
    15    10     5    1
    16    11     6    1
    17    12     1    1
    18    13     3    1
    19    13     2    1
    20    14     1    1
    21    15    22   am
    22    15    29   am
    23    16    30    1
    24    17    51   am
    25    18    62   am
    26    18    55   am
    27    19    15    1
    28    20    19    1
    29    20    63    1
    30    21    66    1
    31    21    20    1
    32    21    19    1
    33    22    23    1
    34    23    28   ar
    35    23    24   ar
    36    24    25   ar
    37    25    96    1
    38    25    26   ar
    39    26    97    1
    40    27    67    1
    41    27    26   ar
    42    28    27   ar
    43    29    94    2
    44    29    28    1
    45    30    32    1
    46    30    31    1
    47    31    69    1
    48    31    68    1
    49    32    70    1
    50    32    31    1
    51    32    71    1
    52    33    91    2
    53    33    16   am
    54    34    39   ar
    55    34    33    1
    56    35    34   ar
    57    36    37   ar
    58    36    35   ar
    59    37    38   ar
    60    38    74    1
    61    38    39   ar
    62    39    40    1
    63    40    16   am
    64    40    92    2
    65    41    17    1
    66    42    41    1
    67    42    75    1
    68    43    42    1
    69    43    41    1
    70    44    17   am
    71    44    45    1
    72    45    46   ar
    73    45    50   ar
    74    46    47   ar
    75    47   100    1
    76    47    48   ar
    77    48   101    1
    78    49    48   ar
    79    49    79    1
    80    50    49   ar
    81    51    90    2
    82    51    50    1
    83    52    18    1
    84    52     3    1
    85    53    52    1
    86    54    53    1
    87    54    52    1
    88    55    56    1
    89    56    57   ar
    90    57    84    1
    91    57    58   ar
    92    58   102    1
    93    59    58   ar
    94    59    85    1
    95    60    59   ar
    96    61    56   ar
    97    61    60   ar
    98    62    61    1
    99    64    20    1
   100    65    21    1
   101    72    35    1
   102    73    37    1
   103    76    42    1
   104    77    43    1
   105    78    43    1
   106    80    53    1
   107    81    53    1
   108    82    54    1
   109    83    54    1
   110    86    60    1
   111    87    55    2
   112    88    62    2
   113    89    44    2
   114    93    22    2
   115    95    24    1
   116    98    36    1
   117    99    46    1
