@<TRIPOS>MOLECULE
RhRh_cis-Cy-fused-Hback-S-PTV4_17_sp
 146 157 0 0 0
SMALL
GASTEIGER

@<TRIPOS>ATOM
      1 Rh         -0.0004   -0.0443    0.2232 Rh      1  UNL1        0.0000
      2 Rh          0.1880    0.1053   -2.1579 Rh      1  UNL1        0.0000
      3 C           2.5372   -0.9123   -0.8458 C.3     1  UNL1        0.0000
      4 C          -2.3737    0.8845   -1.1017 C.3     1  UNL1        0.0000
      5 C           1.0609    2.4430   -0.7084 C.3     1  UNL1        0.0000
      6 C          -0.7924   -2.4273   -1.2081 C.3     1  UNL1        0.0000
      7 O          -0.6449   -1.9728   -0.0268 O.3     1  UNL1        0.0000
      8 O          -0.4897   -1.8320   -2.2813 O.3     1  UNL1        0.0000
      9 O           1.9504   -0.6716    0.2614 O.3     1  UNL1        0.0000
     10 O           2.0997   -0.6400   -1.9979 O.3     1  UNL1        0.0000
     11 O           0.6800    1.8669    0.3606 O.3     1  UNL1        0.0000
     12 O           0.8845    2.0278   -1.8905 O.3     1  UNL1        0.0000
     13 O          -1.9297    0.5903    0.0548 O.3     1  UNL1        0.0000
     14 O          -1.7496    0.7771   -2.1971 O.3     1  UNL1        0.0000
     15 N          -2.5872   -3.8189   -0.4183 N.am    1  UNL1        0.0000
     16 N           3.6817   -2.6441    0.3320 N.am    1  UNL1        0.0000
     17 N           2.9729    3.3170    0.4178 N.am    1  UNL1        0.0000
     18 N          -3.9377    2.3657   -0.0380 N.am    1  UNL1        0.0000
     19 C          -3.5157   -2.7748   -0.3940 C.2     1  UNL1        0.0000
     20 C          -2.7460   -4.6991    0.6542 C.2     1  UNL1        0.0000
     21 C           2.7066   -3.6357    0.2351 C.2     1  UNL1        0.0000
     22 C           4.1432   -2.4731    1.6408 C.2     1  UNL1        0.0000
     23 C           3.0891    3.7912    1.7303 C.2     1  UNL1        0.0000
     24 C           3.8521    2.2730    0.1420 C.2     1  UNL1        0.0000
     25 C          -4.8124    2.1949    1.0337 C.2     1  UNL1        0.0000
     26 C          -3.0311    3.4122    0.1709 C.2     1  UNL1        0.0000
     27 C          -1.3840   -3.8352   -1.2573 C.3     1  UNL1        0.0000
     28 C          -1.5934   -4.4888   -2.6357 C.3     1  UNL1        0.0000
     29 C          -2.5972   -3.7691   -3.5427 C.3     1  UNL1        0.0000
     30 C          -0.2428   -4.7037   -3.3349 C.3     1  UNL1        0.0000
     31 C           3.8836   -1.6265   -0.6988 C.3     1  UNL1        0.0000
     32 C           4.4905   -2.1592   -2.0090 C.3     1  UNL1        0.0000
     33 C           5.6099   -3.1642   -1.7143 C.3     1  UNL1        0.0000
     34 C           5.0232   -0.9891   -2.8473 C.3     1  UNL1        0.0000
     35 C           1.8768    3.7165   -0.4684 C.3     1  UNL1        0.0000
     36 C           2.3265    4.4448   -1.7449 C.3     1  UNL1        0.0000
     37 C           1.1056    5.0903   -2.4139 C.3     1  UNL1        0.0000
     38 C           3.3965    5.4936   -1.4234 C.3     1  UNL1        0.0000
     39 C          -3.8201    1.3700   -1.1031 C.3     1  UNL1        0.0000
     40 C          -4.4375    1.8220   -2.4411 C.3     1  UNL1        0.0000
     41 C          -3.7485    3.0253   -3.0946 C.3     1  UNL1        0.0000
     42 C          -4.5495    0.6363   -3.4110 C.3     1  UNL1        0.0000
     43 C          -4.3840    5.4107    0.7416 C.3     1  UNL1        0.0000
     44 C          -3.5661    4.2344    1.3323 C.3     1  UNL1        0.0000
     45 C          -4.4321    3.2141    2.1032 C.3     1  UNL1        0.0000
     46 C          -5.6061    3.7586    2.9205 C.3     1  UNL1        0.0000
     47 C          -6.3617    4.8789    2.1998 C.3     1  UNL1        0.0000
     48 C          -5.3962    5.9770    1.7402 C.3     1  UNL1        0.0000
     49 C           5.4791    4.2137    2.2262 C.3     1  UNL1        0.0000
     50 C           6.0159    1.4314    1.2585 C.3     1  UNL1        0.0000
     51 C           7.0265    2.5734    1.1258 C.3     1  UNL1        0.0000
     52 C           6.8687    3.5762    2.2733 C.3     1  UNL1        0.0000
     53 C           4.5744    1.9193    1.4333 C.3     1  UNL1        0.0000
     54 C           4.3440    3.1630    2.3213 C.3     1  UNL1        0.0000
     55 C           0.4298   -4.1291    2.5700 C.3     1  UNL1        0.0000
     56 C           1.4212   -5.0976    1.9203 C.3     1  UNL1        0.0000
     57 C           2.2670   -2.5488    3.2292 C.3     1  UNL1        0.0000
     58 C           1.0850   -3.3793    3.7333 C.3     1  UNL1        0.0000
     59 C           2.7457   -4.4347    1.5310 C.3     1  UNL1        0.0000
     60 C           3.3465   -3.4172    2.5288 C.3     1  UNL1        0.0000
     61 C          -4.0367   -2.1744    3.3237 C.3     1  UNL1        0.0000
     62 C          -3.7540   -1.8325    1.8607 C.3     1  UNL1        0.0000
     63 C          -4.0974   -4.6468    2.8369 C.3     1  UNL1        0.0000
     64 C          -3.4451   -3.5430    3.6750 C.3     1  UNL1        0.0000
     65 C          -4.0685   -4.3558    1.3329 C.3     1  UNL1        0.0000
     66 C          -4.3228   -2.8989    0.8854 C.3     1  UNL1        0.0000
     67 H          -0.6716   -4.4545   -0.7027 H       1  UNL1        0.0000
     68 H          -2.7109   -4.3284   -4.4770 H       1  UNL1        0.0000
     69 H          -2.2552   -2.7605   -3.7809 H       1  UNL1        0.0000
     70 H          -3.5812   -3.6858   -3.0765 H       1  UNL1        0.0000
     71 H           0.4807   -5.1854   -2.6704 H       1  UNL1        0.0000
     72 H           0.1843   -3.7519   -3.6571 H       1  UNL1        0.0000
     73 H          -0.3772   -5.3377   -4.2166 H       1  UNL1        0.0000
     74 H           4.5710   -0.9032   -0.2500 H       1  UNL1        0.0000
     75 H           6.3794   -2.7182   -1.0734 H       1  UNL1        0.0000
     76 H           6.0893   -3.4746   -2.6474 H       1  UNL1        0.0000
     77 H           5.2359   -4.0622   -1.2158 H       1  UNL1        0.0000
     78 H           5.8464   -0.4862   -2.3268 H       1  UNL1        0.0000
     79 H           4.2485   -0.2478   -3.0427 H       1  UNL1        0.0000
     80 H           5.4054   -1.3571   -3.8045 H       1  UNL1        0.0000
     81 H           1.2604    4.3839    0.1436 H       1  UNL1        0.0000
     82 H           0.3217    4.3574   -2.6143 H       1  UNL1        0.0000
     83 H           1.3929    5.5527   -3.3631 H       1  UNL1        0.0000
     84 H           0.6835    5.8735   -1.7731 H       1  UNL1        0.0000
     85 H           4.3176    5.0324   -1.0566 H       1  UNL1        0.0000
     86 H           3.0434    6.1987   -0.6619 H       1  UNL1        0.0000
     87 H           3.6454    6.0660   -2.3219 H       1  UNL1        0.0000
     88 H          -4.3969    0.5094   -0.7496 H       1  UNL1        0.0000
     89 H          -2.7088    2.7964   -3.3353 H       1  UNL1        0.0000
     90 H          -3.7558    3.9052   -2.4475 H       1  UNL1        0.0000
     91 H          -4.2706    3.2857   -4.0211 H       1  UNL1        0.0000
     92 H          -5.0127   -0.2307   -2.9313 H       1  UNL1        0.0000
     93 H          -3.5642    0.3305   -3.7676 H       1  UNL1        0.0000
     94 H          -5.1580    0.9198   -4.2754 H       1  UNL1        0.0000
     95 H          -2.0033   -5.4797   -2.3958 H       1  UNL1        0.0000
     96 H           3.6946   -2.6651   -2.5638 H       1  UNL1        0.0000
     97 H           2.7515    3.6966   -2.4201 H       1  UNL1        0.0000
     98 H          -5.4585    2.1230   -2.1681 H       1  UNL1        0.0000
     99 H          -2.7373    4.6178    1.9313 H       1  UNL1        0.0000
    100 H          -4.8721    6.3952    2.6105 H       1  UNL1        0.0000
    101 H          -4.9346    5.0542   -0.1391 H       1  UNL1        0.0000
    102 H          -6.2732    2.9249    3.1606 H       1  UNL1        0.0000
    103 H          -5.2171    4.1462    3.8696 H       1  UNL1        0.0000
    104 H          -7.1291    5.2908    2.8635 H       1  UNL1        0.0000
    105 H          -6.8868    4.4694    1.3263 H       1  UNL1        0.0000
    106 H          -5.9448    6.8026    1.2742 H       1  UNL1        0.0000
    107 H          -3.6895    6.1775    0.3866 H       1  UNL1        0.0000
    108 H          -3.7705    2.6480    2.7740 H       1  UNL1        0.0000
    109 H           7.6321    4.3596    2.2111 H       1  UNL1        0.0000
    110 H           5.3395    4.9519    3.0210 H       1  UNL1        0.0000
    111 H           6.2737    0.8102    2.1217 H       1  UNL1        0.0000
    112 H           6.0547    0.7749    0.3847 H       1  UNL1        0.0000
    113 H           6.8788    3.0946    0.1697 H       1  UNL1        0.0000
    114 H           8.0419    2.1635    1.1062 H       1  UNL1        0.0000
    115 H           7.0160    3.0635    3.2337 H       1  UNL1        0.0000
    116 H           5.3843    4.7573    1.2769 H       1  UNL1        0.0000
    117 H           3.9821    1.0842    1.8332 H       1  UNL1        0.0000
    118 H           4.1715    2.9004    3.3676 H       1  UNL1        0.0000
    119 H           1.6412   -5.9085    2.6251 H       1  UNL1        0.0000
    120 H           0.9783   -5.5590    1.0333 H       1  UNL1        0.0000
    121 H           0.3602   -2.7168    4.2210 H       1  UNL1        0.0000
    122 H          -0.4447   -4.6935    2.9041 H       1  UNL1        0.0000
    123 H           1.8919   -1.8127    2.5081 H       1  UNL1        0.0000
    124 H           2.7476   -1.9862    4.0350 H       1  UNL1        0.0000
    125 H           1.4229   -4.0943    4.4966 H       1  UNL1        0.0000
    126 H           0.0739   -3.4084    1.8242 H       1  UNL1        0.0000
    127 H           3.4925   -5.2208    1.3505 H       1  UNL1        0.0000
    128 H           3.9918   -3.8868    3.2751 H       1  UNL1        0.0000
    129 H          -4.1677   -0.8595    1.5860 H       1  UNL1        0.0000
    130 H          -2.6688   -1.7667    1.7182 H       1  UNL1        0.0000
    131 H          -2.3632   -3.5248    3.4900 H       1  UNL1        0.0000
    132 H          -5.1195   -2.1794    3.5090 H       1  UNL1        0.0000
    133 H          -3.6093   -5.6113    3.0081 H       1  UNL1        0.0000
    134 H          -5.1435   -4.7539    3.1474 H       1  UNL1        0.0000
    135 H          -3.5799   -3.7653    4.7390 H       1  UNL1        0.0000
    136 H          -3.6108   -1.3948    3.9652 H       1  UNL1        0.0000
    137 H          -4.8070   -5.0028    0.8395 H       1  UNL1        0.0000
    138 H          -5.3788   -2.6954    0.6930 H       1  UNL1        0.0000
    139 O           2.3507    4.6124    2.2314 O.2     1  UNL1        0.0000
    140 O           3.9433    1.7171   -0.9375 O.2     1  UNL1        0.0000
    141 O           1.9954   -3.8044   -0.7380 O.2     1  UNL1        0.0000
    142 O           4.9570   -1.6360    1.9780 O.2     1  UNL1        0.0000
    143 O          -1.9667   -5.5863    0.9387 O.2     1  UNL1        0.0000
    144 O          -3.5619   -1.8783   -1.2149 O.2     1  UNL1        0.0000
    145 O          -5.6643    1.3301    1.0997 O.2     1  UNL1        0.0000
    146 O          -2.0474    3.6212   -0.5094 O.2     1  UNL1        0.0000
@<TRIPOS>BOND
     1     1     9    1
     2     1    11    1
     3     2    10    1
     4     2    12    1
     5     2     1    1
     6     3    31    1
     7     3     9    1
     8     4    39    1
     9     4    13    1
    10     5    35    1
    11     5    11    1
    12     6    27    1
    13     6     7    1
    14     7     1    1
    15     8     2    1
    16     8     6    1
    17    10     3    1
    18    12     5    1
    19    13     1    1
    20    14     2    1
    21    14     4    1
    22    15    19   am
    23    15    20   am
    24    16    22   am
    25    17    23   am
    26    18    26   am
    27    18    25   am
    28    19    66    1
    29    20   143    2
    30    20    65    1
    31    21    16   am
    32    21    59    1
    33    22   142    2
    34    22    60    1
    35    23   139    2
    36    23    54    1
    37    24    17   am
    38    24    53    1
    39    25   145    2
    40    25    45    1
    41    26    44    1
    42    27    67    1
    43    27    15    1
    44    28    95    1
    45    28    27    1
    46    29    70    1
    47    29    28    1
    48    30    71    1
    49    30    28    1
    50    31    74    1
    51    31    16    1
    52    32    33    1
    53    32    31    1
    54    33    77    1
    55    33    75    1
    56    34    78    1
    57    34    32    1
    58    35    81    1
    59    35    17    1
    60    36    38    1
    61    36    35    1
    62    37    84    1
    63    37    36    1
    64    38    85    1
    65    38    86    1
    66    39    88    1
    67    39    18    1
    68    40    98    1
    69    40    39    1
    70    41    90    1
    71    41    40    1
    72    42    92    1
    73    42    40    1
    74    43    44    1
    75    43    48    1
    76    44    99    1
    77    44    45    1
    78    45   108    1
    79    45    46    1
    80    46   102    1
    81    46   103    1
    82    47   104    1
    83    47    46    1
    84    48    47    1
    85    48   100    1
    86    49    52    1
    87    49    54    1
    88    49   110    1
    89    50    53    1
    90    50   111    1
    91    51    50    1
    92    51    52    1
    93    52   115    1
    94    53   117    1
    95    53    54    1
    96    54   118    1
    97    55   122    1
    98    55    58    1
    99    56    55    1
   100    56   119    1
   101    57    58    1
   102    57   124    1
   103    58   121    1
   104    58   125    1
   105    59   127    1
   106    59    56    1
   107    59    60    1
   108    60    57    1
   109    60   128    1
   110    61   132    1
   111    61    64    1
   112    61   136    1
   113    62    61    1
   114    63   133    1
   115    63   134    1
   116    63    64    1
   117    64   135    1
   118    65   137    1
   119    65    63    1
   120    66   138    1
   121    66    65    1
   122    66    62    1
   123    68    29    1
   124    69    29    1
   125    72    30    1
   126    73    30    1
   127    76    33    1
   128    79    34    1
   129    80    34    1
   130    82    37    1
   131    83    37    1
   132    87    38    1
   133    89    41    1
   134    91    41    1
   135    93    42    1
   136    94    42    1
   137    96    32    1
   138    97    36    1
   139   101    43    1
   140   105    47    1
   141   106    48    1
   142   107    43    1
   143   109    52    1
   144   112    50    1
   145   113    51    1
   146   114    51    1
   147   116    49    1
   148   120    56    1
   149   123    57    1
   150   126    55    1
   151   129    62    1
   152   130    62    1
   153   131    64    1
   154   140    24    2
   155   141    21    2
   156   144    19    2
   157   146    26    2
