@<TRIPOS>MOLECULE
RhRh_S-PhenTTL4_10_sp
 180 199 0 0 0
SMALL
GASTEIGER

@<TRIPOS>ATOM
      1 Rh          0.1692   -1.2730    1.8150 Rh      1  UNL1        0.0000
      2 Rh          0.6788   -0.3656   -0.3346 Rh      1  UNL1        0.0000
      3 C           2.4543    0.4966    1.7632 C.3     1  UNL1        0.0000
      4 C          -1.5397   -2.2091   -0.3074 C.3     1  UNL1        0.0000
      5 C           2.0937   -2.8103    0.3033 C.3     1  UNL1        0.0000
      6 C          -1.2311    1.1665    1.1690 C.3     1  UNL1        0.0000
      7 O          -1.4218   -2.2613    0.9564 O.3     1  UNL1        0.0000
      8 O          -0.7800   -1.5765   -1.0995 O.3     1  UNL1        0.0000
      9 O          -0.9866    0.3796    2.1330 O.3     1  UNL1        0.0000
     10 O          -0.7110    1.1075    0.0119 O.3     1  UNL1        0.0000
     11 O           1.8048   -0.2523    2.5537 O.3     1  UNL1        0.0000
     12 O           2.1481    0.7483    0.5542 O.3     1  UNL1        0.0000
     13 O           1.3910   -2.8816    1.3539 O.3     1  UNL1        0.0000
     14 O           2.0489   -1.8813   -0.5660 O.3     1  UNL1        0.0000
     15 N          -3.9094   -2.2712   -1.0183 N.am    1  UNL1        0.0000
     16 N          -3.5822    1.9422    1.1433 N.am    1  UNL1        0.0000
     17 N           4.2177    2.0877    1.2754 N.am    1  UNL1        0.0000
     18 N           4.4312   -3.3329   -0.0902 N.am    1  UNL1        0.0000
     19 C          -2.6753   -3.0508   -0.9062 C.3     1  UNL1        0.0000
     20 C          -5.1694   -2.8482   -0.7608 C.2     1  UNL1        0.0000
     21 C          -6.1827   -1.8672   -1.2534 C.ar    1  UNL1        0.0000
     22 C          -7.5982   -1.9947   -1.3333 C.ar    1  UNL1        0.0000
     23 C          -8.3270   -0.8866   -1.8708 C.ar    1  UNL1        0.0000
     24 C          -7.6294    0.3162   -2.3215 C.ar    1  UNL1        0.0000
     25 C          -6.1891    0.3876   -2.2237 C.ar    1  UNL1        0.0000
     26 C          -5.5237   -0.7479   -1.6777 C.ar    1  UNL1        0.0000
     27 C          -4.0549   -0.9579   -1.4987 C.2     1  UNL1        0.0000
     28 C          -2.2889   -3.7906   -2.2295 C.3     1  UNL1        0.0000
     29 C          -3.3735   -4.8380   -2.5443 C.3     1  UNL1        0.0000
     30 C          -2.1655   -2.8409   -3.4321 C.3     1  UNL1        0.0000
     31 C          -0.9560   -4.5259   -1.9898 C.3     1  UNL1        0.0000
     32 C          -2.1953    2.3373    1.4031 C.3     1  UNL1        0.0000
     33 C          -4.2353    0.7575    1.5294 C.2     1  UNL1        0.0000
     34 C          -5.6820    0.9687    1.2197 C.ar    1  UNL1        0.0000
     35 C          -6.7773    0.0949    1.4730 C.ar    1  UNL1        0.0000
     36 C          -8.0815    0.5660    1.1254 C.ar    1  UNL1        0.0000
     37 C          -8.2511    1.8902    0.5384 C.ar    1  UNL1        0.0000
     38 C          -7.1125    2.7191    0.2846 C.ar    1  UNL1        0.0000
     39 C          -5.8353    2.1991    0.6455 C.ar    1  UNL1        0.0000
     40 C          -4.4851    2.8236    0.5138 C.2     1  UNL1        0.0000
     41 C          -1.9964    3.0567    2.7762 C.3     1  UNL1        0.0000
     42 C          -2.7837    4.3801    2.7616 C.3     1  UNL1        0.0000
     43 C          -2.4824    2.2139    3.9664 C.3     1  UNL1        0.0000
     44 C          -0.4976    3.3760    2.9205 C.3     1  UNL1        0.0000
     45 C           3.7917    1.0719    2.2338 C.3     1  UNL1        0.0000
     46 C           3.5327    3.2743    0.9576 C.2     1  UNL1        0.0000
     47 C           4.1109    3.7531   -0.3366 C.ar    1  UNL1        0.0000
     48 C           3.8278    4.9433   -1.0686 C.ar    1  UNL1        0.0000
     49 C           4.5306    5.1361   -2.3019 C.ar    1  UNL1        0.0000
     50 C           5.4883    4.1377   -2.7710 C.ar    1  UNL1        0.0000
     51 C           5.7313    2.9577   -1.9999 C.ar    1  UNL1        0.0000
     52 C           5.0089    2.8225   -0.7797 C.ar    1  UNL1        0.0000
     53 C           5.0356    1.7059    0.1972 C.2     1  UNL1        0.0000
     54 C           3.9521    1.4299    3.7466 C.3     1  UNL1        0.0000
     55 C           5.2283    2.2763    3.8967 C.3     1  UNL1        0.0000
     56 C           2.7507    2.1881    4.3320 C.3     1  UNL1        0.0000
     57 C           4.1413    0.1144    4.5285 C.3     1  UNL1        0.0000
     58 C           3.0959   -3.9223   -0.0436 C.3     1  UNL1        0.0000
     59 C           5.0398   -2.5700    0.9137 C.2     1  UNL1        0.0000
     60 C           6.3560   -2.1351    0.3592 C.ar    1  UNL1        0.0000
     61 C           7.3877   -1.3878    0.9940 C.ar    1  UNL1        0.0000
     62 C           8.4587   -0.9207    0.1722 C.ar    1  UNL1        0.0000
     63 C           8.4761   -1.2301   -1.2545 C.ar    1  UNL1        0.0000
     64 C           7.4445   -2.0385   -1.8299 C.ar    1  UNL1        0.0000
     65 C           6.3972   -2.4722   -0.9645 C.ar    1  UNL1        0.0000
     66 C           5.1728   -3.2622   -1.2875 C.2     1  UNL1        0.0000
     67 C           3.0074   -5.2651    0.7317 C.3     1  UNL1        0.0000
     68 C           1.6013   -5.8493    0.4975 C.3     1  UNL1        0.0000
     69 C           4.0484   -6.2183    0.1147 C.3     1  UNL1        0.0000
     70 C           3.2748   -5.1362    2.2398 C.3     1  UNL1        0.0000
     71 C           6.2022    4.2774   -3.9825 C.ar    1  UNL1        0.0000
     72 C           6.6486    1.9782   -2.4480 C.ar    1  UNL1        0.0000
     73 C           4.2517    6.3145   -3.0298 C.ar    1  UNL1        0.0000
     74 C           2.8920    5.9029   -0.6184 C.ar    1  UNL1        0.0000
     75 C           2.6490    7.0387   -1.3624 C.ar    1  UNL1        0.0000
     76 C           3.3353    7.2431   -2.5735 C.ar    1  UNL1        0.0000
     77 C           7.3218    2.1531   -3.6389 C.ar    1  UNL1        0.0000
     78 C           7.0955    3.3109   -4.4063 C.ar    1  UNL1        0.0000
     79 C           7.3578   -1.0856    2.3730 C.ar    1  UNL1        0.0000
     80 C           9.4642   -0.1464    0.7927 C.ar    1  UNL1        0.0000
     81 C           8.3562   -0.3218    2.9408 C.ar    1  UNL1        0.0000
     82 C           9.4132    0.1516    2.1415 C.ar    1  UNL1        0.0000
     83 C           9.4834   -0.7489   -2.1207 C.ar    1  UNL1        0.0000
     84 C           7.4562   -2.3409   -3.2107 C.ar    1  UNL1        0.0000
     85 C           8.4613   -1.8534   -4.0207 C.ar    1  UNL1        0.0000
     86 C           9.4788   -1.0526   -3.4699 C.ar    1  UNL1        0.0000
     87 C          -8.2738   -3.1653   -0.9200 C.ar    1  UNL1        0.0000
     88 C          -9.7331   -1.0137   -1.9478 C.ar    1  UNL1        0.0000
     89 C          -8.3593    1.4243   -2.8662 C.2     1  UNL1        0.0000
     90 C          -5.4394    1.5360   -2.6529 C.2     1  UNL1        0.0000
     91 C          -9.6456   -3.2532   -1.0278 C.ar    1  UNL1        0.0000
     92 C         -10.3767   -2.1665   -1.5398 C.ar    1  UNL1        0.0000
     93 C          -6.2859    2.4859   -3.1437 C.2     1  UNL1        0.0000
     94 C          -7.5371    2.4512   -3.2421 C.2     1  UNL1        0.0000
     95 C          -6.6032   -1.1935    2.0313 C.ar    1  UNL1        0.0000
     96 C          -9.1717   -0.2995    1.3699 C.ar    1  UNL1        0.0000
     97 C          -7.6943   -2.0069    2.2481 C.ar    1  UNL1        0.0000
     98 C          -8.9844   -1.5530    1.9170 C.ar    1  UNL1        0.0000
     99 C          -9.5211    2.4057    0.1946 C.ar    1  UNL1        0.0000
    100 C          -7.2742    4.0027   -0.2837 C.ar    1  UNL1        0.0000
    101 C          -8.5328    4.4708   -0.5984 C.ar    1  UNL1        0.0000
    102 C          -9.6603    3.6648   -0.3582 C.ar    1  UNL1        0.0000
    103 H          -2.9002   -3.8099   -0.1534 H       1  UNL1        0.0000
    104 H          -3.5356   -5.5229   -1.7074 H       1  UNL1        0.0000
    105 H          -3.0688   -5.4238   -3.4170 H       1  UNL1        0.0000
    106 H          -4.3323   -4.3708   -2.7838 H       1  UNL1        0.0000
    107 H          -3.1220   -2.3572   -3.6523 H       1  UNL1        0.0000
    108 H          -1.8818   -3.4178   -4.3185 H       1  UNL1        0.0000
    109 H          -1.4203   -2.0658   -3.2608 H       1  UNL1        0.0000
    110 H          -0.7256   -5.1642   -2.8481 H       1  UNL1        0.0000
    111 H          -1.0122   -5.1684   -1.1042 H       1  UNL1        0.0000
    112 H          -0.1273   -3.8269   -1.8598 H       1  UNL1        0.0000
    113 H          -1.9661    3.0584    0.6154 H       1  UNL1        0.0000
    114 H          -2.5722    4.9355    3.6808 H       1  UNL1        0.0000
    115 H          -3.8634    4.2117    2.7226 H       1  UNL1        0.0000
    116 H          -2.5115    5.0072    1.9085 H       1  UNL1        0.0000
    117 H          -2.3148    2.7714    4.8939 H       1  UNL1        0.0000
    118 H          -1.9591    1.2609    4.0277 H       1  UNL1        0.0000
    119 H          -3.5558    2.0123    3.8962 H       1  UNL1        0.0000
    120 H          -0.3289    3.9778    3.8184 H       1  UNL1        0.0000
    121 H          -0.1170    3.9429    2.0649 H       1  UNL1        0.0000
    122 H           0.1009    2.4697    3.0147 H       1  UNL1        0.0000
    123 H           4.4865    0.2441    2.0446 H       1  UNL1        0.0000
    124 H           5.4488    2.4179    4.9594 H       1  UNL1        0.0000
    125 H           5.1137    3.2636    3.4421 H       1  UNL1        0.0000
    126 H           6.0902    1.7842    3.4331 H       1  UNL1        0.0000
    127 H           2.9486    2.4209    5.3838 H       1  UNL1        0.0000
    128 H           1.8479    1.5746    4.2909 H       1  UNL1        0.0000
    129 H           2.5628    3.1178    3.7961 H       1  UNL1        0.0000
    130 H           4.2583    0.3361    5.5942 H       1  UNL1        0.0000
    131 H           5.0341   -0.4197    4.1922 H       1  UNL1        0.0000
    132 H           3.2854   -0.5494    4.4024 H       1  UNL1        0.0000
    133 H           2.8877   -4.1524   -1.0938 H       1  UNL1        0.0000
    134 H           1.5294   -6.8384    0.9598 H       1  UNL1        0.0000
    135 H           1.3954   -5.9670   -0.5723 H       1  UNL1        0.0000
    136 H           0.8272   -5.2137    0.9319 H       1  UNL1        0.0000
    137 H           3.9577   -7.2099    0.5682 H       1  UNL1        0.0000
    138 H           5.0676   -5.8626    0.2912 H       1  UNL1        0.0000
    139 H           3.9101   -6.3218   -0.9663 H       1  UNL1        0.0000
    140 H           4.2869   -4.7791    2.4400 H       1  UNL1        0.0000
    141 H           3.1685   -6.1213    2.7070 H       1  UNL1        0.0000
    142 H           2.5750   -4.4465    2.7109 H       1  UNL1        0.0000
    143 H          -4.3626    1.5646   -2.5598 H       1  UNL1        0.0000
    144 H          -9.4369    1.4207   -2.9474 H       1  UNL1        0.0000
    145 H         -10.3306   -0.2002   -2.3388 H       1  UNL1        0.0000
    146 H          -7.6843   -3.9792   -0.5167 H       1  UNL1        0.0000
    147 H          10.2976    0.2268    0.2104 H       1  UNL1        0.0000
    148 H          10.2778   -0.1241   -1.7319 H       1  UNL1        0.0000
    149 H           6.6558   -2.9520   -3.6097 H       1  UNL1        0.0000
    150 H           6.5331   -1.4629    2.9636 H       1  UNL1        0.0000
    151 H         -10.1762    0.0073    1.1096 H       1  UNL1        0.0000
    152 H          -5.5997   -1.5192    2.2740 H       1  UNL1        0.0000
    153 H           4.7591    6.5037   -3.9676 H       1  UNL1        0.0000
    154 H           2.3763    5.7177    0.3158 H       1  UNL1        0.0000
    155 H           6.0530    5.1536   -4.6015 H       1  UNL1        0.0000
    156 H           6.8025    1.0943   -1.8424 H       1  UNL1        0.0000
    157 O           4.8303   -3.7721   -2.3363 O.2     1  UNL1        0.0000
    158 O           4.5325   -2.2953    1.9871 O.2     1  UNL1        0.0000
    159 O           2.6490    3.7794    1.6236 O.2     1  UNL1        0.0000
    160 O           5.6075    0.6357    0.1161 O.2     1  UNL1        0.0000
    161 O          -3.7095   -0.2305    2.0003 O.2     1  UNL1        0.0000
    162 O          -4.1726    3.8719   -0.0173 O.2     1  UNL1        0.0000
    163 O          -3.1550   -0.1672   -1.6983 O.2     1  UNL1        0.0000
    164 O          -5.3398   -3.9355   -0.2441 O.2     1  UNL1        0.0000
    165 H         -10.4099    1.8122    0.3693 H       1  UNL1        0.0000
    166 H           1.9289    7.7728   -1.0158 H       1  UNL1        0.0000
    167 H           3.1433    8.1372   -3.1585 H       1  UNL1        0.0000
    168 H           8.0202    1.3954   -3.9780 H       1  UNL1        0.0000
    169 H           7.6253    3.4490   -5.3439 H       1  UNL1        0.0000
    170 H          -6.3877    4.5962   -0.4698 H       1  UNL1        0.0000
    171 H          -8.6528    5.4564   -1.0362 H       1  UNL1        0.0000
    172 H         -10.6506    4.0336   -0.6076 H       1  UNL1        0.0000
    173 H          -7.5563   -3.0000    2.6624 H       1  UNL1        0.0000
    174 H          -9.8411   -2.1995    2.0758 H       1  UNL1        0.0000
    175 H           8.3271   -0.0879    4.0001 H       1  UNL1        0.0000
    176 H          10.2000    0.7523    2.5871 H       1  UNL1        0.0000
    177 H           8.4657   -2.0842   -5.0811 H       1  UNL1        0.0000
    178 H          10.2694   -0.6684   -4.1073 H       1  UNL1        0.0000
    179 H         -10.1603   -4.1553   -0.7130 H       1  UNL1        0.0000
    180 H         -11.4575   -2.2314   -1.6196 H       1  UNL1        0.0000
@<TRIPOS>BOND
     1     1     9    1
     2     1    11    1
     3     2    10    1
     4     2    12    1
     5     2     1    1
     6     3    45    1
     7     3    11    1
     8     4    19    1
     9     4     7    1
    10     5    58    1
    11     5    13    1
    12     6    32    1
    13     6     9    1
    14     7     1    1
    15     8     2    1
    16     8     4    1
    17    10     6    1
    18    12     3    1
    19    13     1    1
    20    14     2    1
    21    14     5    1
    22    15    19    1
    23    15    20   am
    24    16    32    1
    25    16    33   am
    26    17    45    1
    27    18    58    1
    28    18    59   am
    29    19   103    1
    30    20   164    2
    31    21    20    1
    32    22    21   ar
    33    22    87   ar
    34    23    22   ar
    35    24    25   ar
    36    24    23   ar
    37    25    26   ar
    38    26    27    1
    39    26    21   ar
    40    27    15   am
    41    28    31    1
    42    28    19    1
    43    29    28    1
    44    29   104    1
    45    30   109    1
    46    30    28    1
    47    31   112    1
    48    31   111    1
    49    32   113    1
    50    32    41    1
    51    33   161    2
    52    34    35   ar
    53    34    33    1
    54    35    95   ar
    55    36    96   ar
    56    36    35   ar
    57    37    36   ar
    58    38    37   ar
    59    38    39   ar
    60    39    34   ar
    61    40    39    1
    62    40    16   am
    63    41    44    1
    64    41    43    1
    65    42    41    1
    66    42   114    1
    67    43   118    1
    68    43   117    1
    69    44   122    1
    70    44   120    1
    71    45   123    1
    72    45    54    1
    73    46    17   am
    74    46   159    2
    75    47    46    1
    76    48    74   ar
    77    48    47   ar
    78    49    48   ar
    79    50    49   ar
    80    50    51   ar
    81    51    52   ar
    82    52    47   ar
    83    52    53    1
    84    53    17   am
    85    54    55    1
    86    54    56    1
    87    54    57    1
    88    55   124    1
    89    56   127    1
    90    57   130    1
    91    58   133    1
    92    58    67    1
    93    59   158    2
    94    60    59    1
    95    60    61   ar
    96    61    79   ar
    97    62    80   ar
    98    62    61   ar
    99    63    62   ar
   100    64    63   ar
   101    64    65   ar
   102    65    60   ar
   103    66    65    1
   104    66    18   am
   105    67    70    1
   106    68    67    1
   107    68   136    1
   108    68   134    1
   109    69   138    1
   110    69   137    1
   111    69    67    1
   112    70   140    1
   113    70   141    1
   114    70   142    1
   115    71    50   ar
   116    72    51   ar
   117    72   156    1
   118    73    76   ar
   119    73    49   ar
   120    74   154    1
   121    75   166    1
   122    75    74   ar
   123    76    75   ar
   124    77    72   ar
   125    78    71   ar
   126    78    77   ar
   127    79    81   ar
   128    79   150    1
   129    80    82   ar
   130    81   175    1
   131    82   176    1
   132    82    81   ar
   133    83   148    1
   134    83    63   ar
   135    84    64   ar
   136    85    86   ar
   137    85    84   ar
   138    86    83   ar
   139    87   146    1
   140    88    23   ar
   141    88    92   ar
   142    89    24    2
   143    90   143    1
   144    90    25    2
   145    91    87   ar
   146    91   179    1
   147    92    91   ar
   148    93    90    1
   149    94    93    2
   150    94    89    1
   151    95    97   ar
   152    95   152    1
   153    96    98   ar
   154    97   173    1
   155    98   174    1
   156    98    97   ar
   157    99   165    1
   158    99    37   ar
   159   100    38   ar
   160   101   102   ar
   161   101   100   ar
   162   102    99   ar
   163   105    29    1
   164   106    29    1
   165   107    30    1
   166   108    30    1
   167   110    31    1
   168   115    42    1
   169   116    42    1
   170   119    43    1
   171   121    44    1
   172   125    55    1
   173   126    55    1
   174   128    56    1
   175   129    56    1
   176   131    57    1
   177   132    57    1
   178   135    68    1
   179   139    69    1
   180   144    89    1
   181   145    88    1
   182   147    80    1
   183   149    84    1
   184   151    96    1
   185   153    73    1
   186   155    71    1
   187   157    66    2
   188   160    53    2
   189   162    40    2
   190   163    27    2
   191   167    76    1
   192   168    77    1
   193   169    78    1
   194   170   100    1
   195   171   101    1
   196   172   102    1
   197   177    85    1
   198   178    86    1
   199   180    92    1
