@<TRIPOS>MOLECULE
RhRh_MeMePh-O2C4_C2eq_sp
 94 101 0 0 0
SMALL
GASTEIGER

@<TRIPOS>ATOM
      1 Rh          0.0815   -0.1998   -0.8817 Rh      1  UNL1        0.0000
      2 Rh         -0.0424   -0.9450    1.3799 Rh      1  UNL1        0.0000
      3 C           1.8513   -2.3909   -0.2611 C.3     1  UNL1        0.0000
      4 C          -1.9991   -2.1454   -0.3742 C.3     1  UNL1        0.0000
      5 C          -1.6969    1.3495    0.7819 C.3     1  UNL1        0.0000
      6 C           1.9807    1.0623    0.8956 C.3     1  UNL1        0.0000
      7 O           1.7053    0.9388   -0.3382 O.3     1  UNL1        0.0000
      8 O           1.3945    0.4433    1.8437 O.3     1  UNL1        0.0000
      9 O          -1.1505    1.3527   -0.3672 O.3     1  UNL1        0.0000
     10 O          -1.4986    0.4812    1.6914 O.3     1  UNL1        0.0000
     11 O          -1.5646   -1.3695   -1.2820 O.3     1  UNL1        0.0000
     12 O          -1.4974   -2.2754    0.7898 O.3     1  UNL1        0.0000
     13 O           1.3523   -1.7742   -1.2579 O.3     1  UNL1        0.0000
     14 O           1.4516   -2.2899    0.9419 O.3     1  UNL1        0.0000
     15 C           3.1093    2.0149    1.3239 C.3     1  UNL1        0.0000
     16 C           3.6465    2.8128    0.1354 C.ar    1  UNL1        0.0000
     17 C           5.0044    2.8340   -0.1932 C.ar    1  UNL1        0.0000
     18 C           5.4756    3.6063   -1.2583 C.ar    1  UNL1        0.0000
     19 C           4.5934    4.3729   -2.0147 C.ar    1  UNL1        0.0000
     20 C           3.2338    4.3644   -1.6945 C.ar    1  UNL1        0.0000
     21 C           2.7700    3.5964   -0.6313 C.ar    1  UNL1        0.0000
     22 C          -2.6013    2.5436    1.1083 C.3     1  UNL1        0.0000
     23 C          -3.5065    2.8355   -0.0908 C.ar    1  UNL1        0.0000
     24 C          -3.6913    4.1257   -0.5936 C.ar    1  UNL1        0.0000
     25 C          -4.5647    4.3601   -1.6583 C.ar    1  UNL1        0.0000
     26 C          -5.2640    3.3045   -2.2382 C.ar    1  UNL1        0.0000
     27 C          -5.0869    2.0113   -1.7424 C.ar    1  UNL1        0.0000
     28 C          -4.2213    1.7814   -0.6777 C.ar    1  UNL1        0.0000
     29 C          -3.2682   -2.9519   -0.6849 C.3     1  UNL1        0.0000
     30 C          -4.4492   -2.0899   -0.1938 C.ar    1  UNL1        0.0000
     31 C          -4.4859   -1.6557    1.1409 C.ar    1  UNL1        0.0000
     32 C          -5.5619   -0.9133    1.6227 C.ar    1  UNL1        0.0000
     33 C          -6.6229   -0.5806    0.7797 C.ar    1  UNL1        0.0000
     34 C          -6.5948   -1.0013   -0.5477 C.ar    1  UNL1        0.0000
     35 C          -5.5161   -1.7451   -1.0312 C.ar    1  UNL1        0.0000
     36 C           3.0780   -3.2736   -0.5259 C.3     1  UNL1        0.0000
     37 C           4.2933   -2.3234   -0.4552 C.ar    1  UNL1        0.0000
     38 C           4.3469   -1.1997   -1.2957 C.ar    1  UNL1        0.0000
     39 C           5.4518   -0.3528   -1.2916 C.ar    1  UNL1        0.0000
     40 C           6.5287   -0.6080   -0.4407 C.ar    1  UNL1        0.0000
     41 C           6.4803   -1.7096    0.4111 C.ar    1  UNL1        0.0000
     42 C           5.3703   -2.5576    0.4065 C.ar    1  UNL1        0.0000
     43 C          -3.3242   -3.2448   -2.1912 C.3     1  UNL1        0.0000
     44 C          -3.2510   -4.2839    0.0942 C.3     1  UNL1        0.0000
     45 C           3.1326   -4.3992    0.5164 C.3     1  UNL1        0.0000
     46 C           2.9921   -3.8893   -1.9381 C.3     1  UNL1        0.0000
     47 C           2.5260    2.9944    2.3737 C.3     1  UNL1        0.0000
     48 C           4.1792    1.1378    2.0086 C.3     1  UNL1        0.0000
     49 C          -1.6233    3.6972    1.4289 C.3     1  UNL1        0.0000
     50 C          -3.4697    2.2496    2.3458 C.3     1  UNL1        0.0000
     51 H           5.7093    2.2371    0.3711 H       1  UNL1        0.0000
     52 H           6.5362    3.6038   -1.4928 H       1  UNL1        0.0000
     53 H           4.9575    4.9714   -2.8441 H       1  UNL1        0.0000
     54 H           2.5326    4.9551   -2.2764 H       1  UNL1        0.0000
     55 H           1.7083    3.5867   -0.4084 H       1  UNL1        0.0000
     56 H          -3.1523    4.9623   -0.1643 H       1  UNL1        0.0000
     57 H          -4.6914    5.3711   -2.0343 H       1  UNL1        0.0000
     58 H          -5.9389    3.4853   -3.0693 H       1  UNL1        0.0000
     59 H          -5.6217    1.1754   -2.1804 H       1  UNL1        0.0000
     60 H          -4.0953    0.7687   -0.3092 H       1  UNL1        0.0000
     61 H          -3.6588   -1.8889    1.8011 H       1  UNL1        0.0000
     62 H          -5.5677   -0.5919    2.6597 H       1  UNL1        0.0000
     63 H          -7.4578    0.0041    1.1521 H       1  UNL1        0.0000
     64 H          -7.4115   -0.7477   -1.2167 H       1  UNL1        0.0000
     65 H          -5.5173   -2.0549   -2.0689 H       1  UNL1        0.0000
     66 H           3.5101   -0.9781   -1.9467 H       1  UNL1        0.0000
     67 H           5.4605    0.5174   -1.9387 H       1  UNL1        0.0000
     68 H           7.3914    0.0513   -0.4360 H       1  UNL1        0.0000
     69 H           7.3063   -1.9150    1.0855 H       1  UNL1        0.0000
     70 H           5.3572   -3.4059    1.0796 H       1  UNL1        0.0000
     71 H          -4.2056   -3.8473   -2.4273 H       1  UNL1        0.0000
     72 H          -3.3465   -2.3275   -2.7804 H       1  UNL1        0.0000
     73 H          -2.4391   -3.8125   -2.4897 H       1  UNL1        0.0000
     74 H          -2.4049   -4.9022   -0.2213 H       1  UNL1        0.0000
     75 H          -3.1689   -4.1189    1.1681 H       1  UNL1        0.0000
     76 H          -4.1760   -4.8312   -0.1070 H       1  UNL1        0.0000
     77 H           3.9920   -5.0483    0.3274 H       1  UNL1        0.0000
     78 H           3.1948   -4.0078    1.5323 H       1  UNL1        0.0000
     79 H           2.2282   -5.0096    0.4482 H       1  UNL1        0.0000
     80 H           2.9082   -3.1208   -2.7058 H       1  UNL1        0.0000
     81 H           3.8926   -4.4793   -2.1294 H       1  UNL1        0.0000
     82 H           2.1214   -4.5478   -2.0176 H       1  UNL1        0.0000
     83 H           3.3166    3.6683    2.7147 H       1  UNL1        0.0000
     84 H           1.7230    3.6036    1.9507 H       1  UNL1        0.0000
     85 H           2.1296    2.4435    3.2289 H       1  UNL1        0.0000
     86 H           4.9802    1.7644    2.4105 H       1  UNL1        0.0000
     87 H           3.7226    0.5919    2.8354 H       1  UNL1        0.0000
     88 H           4.6144    0.4152    1.3156 H       1  UNL1        0.0000
     89 H          -2.1694    4.5780    1.7768 H       1  UNL1        0.0000
     90 H          -0.9413    3.3912    2.2276 H       1  UNL1        0.0000
     91 H          -1.0341    3.9690    0.5499 H       1  UNL1        0.0000
     92 H          -4.0938    3.1218    2.5600 H       1  UNL1        0.0000
     93 H          -4.1242    1.3948    2.1673 H       1  UNL1        0.0000
     94 H          -2.8476    2.0322    3.2169 H       1  UNL1        0.0000
@<TRIPOS>BOND
     1     1     9    1
     2     1     7    1
     3     1     2    1
     4     2    10    1
     5     2     8    1
     6     3    14    1
     7     4    12    1
     8     5    22    1
     9     5    10    1
    10     6    15    1
    11     6     8    1
    12     7     6    1
    13     9     5    1
    14    11     1    1
    15    11     4    1
    16    12     2    1
    17    13     1    1
    18    13     3    1
    19    14     2    1
    20    15    48    1
    21    15    47    1
    22    16    15    1
    23    17    16   ar
    24    17    51    1
    25    18    17   ar
    26    19    20   ar
    27    19    18   ar
    28    20    21   ar
    29    21    55    1
    30    21    16   ar
    31    22    49    1
    32    22    50    1
    33    23    22    1
    34    24    56    1
    35    24    23   ar
    36    25    24   ar
    37    26    27   ar
    38    26    25   ar
    39    27    28   ar
    40    28    60    1
    41    28    23   ar
    42    29     4    1
    43    29    30    1
    44    29    44    1
    45    30    31   ar
    46    31    32   ar
    47    31    61    1
    48    32    62    1
    49    33    63    1
    50    33    32   ar
    51    34    33   ar
    52    35    34   ar
    53    35    30   ar
    54    36    37    1
    55    36     3    1
    56    36    45    1
    57    37    42   ar
    58    38    39   ar
    59    38    37   ar
    60    39    40   ar
    61    40    68    1
    62    40    41   ar
    63    41    69    1
    64    42    41   ar
    65    42    70    1
    66    43    29    1
    67    44    75    1
    68    45    78    1
    69    46    36    1
    70    47    83    1
    71    47    85    1
    72    48    86    1
    73    48    87    1
    74    49    89    1
    75    49    90    1
    76    50    92    1
    77    50    94    1
    78    52    18    1
    79    53    19    1
    80    54    20    1
    81    57    25    1
    82    58    26    1
    83    59    27    1
    84    64    34    1
    85    65    35    1
    86    66    38    1
    87    67    39    1
    88    71    43    1
    89    72    43    1
    90    73    43    1
    91    74    44    1
    92    76    44    1
    93    77    45    1
    94    79    45    1
    95    80    46    1
    96    81    46    1
    97    82    46    1
    98    84    47    1
    99    88    48    1
   100    91    49    1
   101    93    50    1
