@<TRIPOS>MOLECULE
RhRh_EtEtiPr-O2C4_7_sp
 114 117 0 0 0
SMALL
GASTEIGER

@<TRIPOS>ATOM
      1 Rh         -0.0644   -0.1278    1.1875 Rh      1  UNL1        0.0000
      2 Rh         -0.0226   -0.0646   -1.1935 Rh      1  UNL1        0.0000
      3 C          -0.0200   -2.7392   -0.0998 C.3     1  UNL1        0.0000
      4 C           2.6129   -0.0457    0.0365 C.3     1  UNL1        0.0000
      5 C          -0.1685    2.5464    0.0890 C.3     1  UNL1        0.0000
      6 C          -2.6929   -0.0932   -0.0560 C.3     1  UNL1        0.0000
      7 O           1.9964   -0.0348    1.1538 O.3     1  UNL1        0.0000
      8 O           2.0329   -0.0791   -1.0966 O.3     1  UNL1        0.0000
      9 O          -0.0141   -2.1880    1.0491 O.3     1  UNL1        0.0000
     10 O          -0.0134   -2.1062   -1.2070 O.3     1  UNL1        0.0000
     11 O          -0.1478    1.9192    1.1986 O.3     1  UNL1        0.0000
     12 O          -0.0852    1.9936   -1.0564 O.3     1  UNL1        0.0000
     13 O          -2.1241   -0.1459    1.0826 O.3     1  UNL1        0.0000
     14 O          -2.0705   -0.0939   -1.1698 O.3     1  UNL1        0.0000
     15 C           4.1574   -0.0090    0.0827 C.3     1  UNL1        0.0000
     16 C           4.5167    1.2694    0.8943 C.3     1  UNL1        0.0000
     17 C           6.0022    1.5192    1.1632 C.3     1  UNL1        0.0000
     18 C           4.6952    0.0008   -1.3943 C.3     1  UNL1        0.0000
     19 C           4.5088    1.3599   -2.0859 C.3     1  UNL1        0.0000
     20 C           6.1461   -0.4767   -1.5817 C.3     1  UNL1        0.0000
     21 C           4.6494   -1.2949    0.8161 C.3     1  UNL1        0.0000
     22 C           4.3373   -1.4388    2.3084 C.3     1  UNL1        0.0000
     23 C           0.0381   -4.2636   -0.1730 C.3     1  UNL1        0.0000
     24 C          -0.4476   -4.7427   -1.5666 C.3     1  UNL1        0.0000
     25 C          -1.9337   -4.5530   -1.8835 C.3     1  UNL1        0.0000
     26 C           1.5585   -4.6736   -0.0039 C.3     1  UNL1        0.0000
     27 C           2.4488   -4.2283   -1.1764 C.3     1  UNL1        0.0000
     28 C           2.2027   -4.1937    1.3052 C.3     1  UNL1        0.0000
     29 C          -0.7978   -4.9435    0.9526 C.3     1  UNL1        0.0000
     30 C          -2.0993   -4.2621    1.3934 C.3     1  UNL1        0.0000
     31 C          -0.2670    4.0745    0.1398 C.3     1  UNL1        0.0000
     32 C          -1.0691    4.5439   -1.1038 C.3     1  UNL1        0.0000
     33 C          -1.2630    6.0567   -1.2206 C.3     1  UNL1        0.0000
     34 C           1.2009    4.6507    0.1271 C.3     1  UNL1        0.0000
     35 C           2.0545    4.1701    1.3117 C.3     1  UNL1        0.0000
     36 C           1.9501    4.3905   -1.1869 C.3     1  UNL1        0.0000
     37 C          -0.9713    4.5054    1.4512 C.3     1  UNL1        0.0000
     38 C          -2.4332    4.0738    1.5876 C.3     1  UNL1        0.0000
     39 C          -4.2207    0.0170   -0.1399 C.3     1  UNL1        0.0000
     40 C          -4.6769   -0.9862   -1.2409 C.3     1  UNL1        0.0000
     41 C          -6.1821   -1.0315   -1.5095 C.3     1  UNL1        0.0000
     42 C          -4.5485    1.4883   -0.5602 C.3     1  UNL1        0.0000
     43 C          -4.1671    1.9312   -1.9742 C.3     1  UNL1        0.0000
     44 C          -4.9379   -0.2820    1.2180 C.3     1  UNL1        0.0000
     45 C          -4.6939   -1.7033    1.7438 C.3     1  UNL1        0.0000
     46 C          -4.6807    0.7393    2.3402 C.3     1  UNL1        0.0000
     47 H           4.1002    2.1395    0.3785 H       1  UNL1        0.0000
     48 H           3.9857    1.2106    1.8470 H       1  UNL1        0.0000
     49 H           6.5513    1.7705    0.2529 H       1  UNL1        0.0000
     50 H           6.4911    0.6542    1.6207 H       1  UNL1        0.0000
     51 H           6.1136    2.3614    1.8537 H       1  UNL1        0.0000
     52 H           4.0684   -0.7153   -1.9347 H       1  UNL1        0.0000
     53 H           3.4879    1.7298   -1.9828 H       1  UNL1        0.0000
     54 H           4.7184    1.2634   -3.1559 H       1  UNL1        0.0000
     55 H           5.1932    2.1165   -1.6880 H       1  UNL1        0.0000
     56 H           6.4165   -0.3755   -2.6379 H       1  UNL1        0.0000
     57 H           6.2774   -1.5286   -1.3179 H       1  UNL1        0.0000
     58 H           6.8667    0.1079   -1.0052 H       1  UNL1        0.0000
     59 H           4.2613   -2.1649    0.2729 H       1  UNL1        0.0000
     60 H           4.7305   -2.3944    2.6699 H       1  UNL1        0.0000
     61 H           3.2677   -1.4078    2.5140 H       1  UNL1        0.0000
     62 H           4.8122   -0.6469    2.8949 H       1  UNL1        0.0000
     63 H           0.1252   -4.2240   -2.3348 H       1  UNL1        0.0000
     64 H          -0.1953   -5.8081   -1.6438 H       1  UNL1        0.0000
     65 H          -2.1273   -4.8352   -2.9233 H       1  UNL1        0.0000
     66 H          -2.2335   -3.5072   -1.7670 H       1  UNL1        0.0000
     67 H          -2.5781   -5.1718   -1.2539 H       1  UNL1        0.0000
     68 H           1.5404   -5.7725    0.0113 H       1  UNL1        0.0000
     69 H           3.4883   -4.5057   -0.9749 H       1  UNL1        0.0000
     70 H           2.4124   -3.1425   -1.3117 H       1  UNL1        0.0000
     71 H           2.1654   -4.6916   -2.1231 H       1  UNL1        0.0000
     72 H           3.2090   -4.6156    1.3911 H       1  UNL1        0.0000
     73 H           1.6451   -4.4885    2.1959 H       1  UNL1        0.0000
     74 H           2.2919   -3.1069    1.3250 H       1  UNL1        0.0000
     75 H          -0.1794   -5.0705    1.8428 H       1  UNL1        0.0000
     76 H          -2.6636   -4.9300    2.0523 H       1  UNL1        0.0000
     77 H          -2.7486   -4.0023    0.5558 H       1  UNL1        0.0000
     78 H          -1.8871   -3.3446    1.9422 H       1  UNL1        0.0000
     79 H          -0.5824    4.1632   -2.0023 H       1  UNL1        0.0000
     80 H          -2.0494    4.0576   -1.0825 H       1  UNL1        0.0000
     81 H          -1.8478    6.2900   -2.1157 H       1  UNL1        0.0000
     82 H          -0.3104    6.5881   -1.3064 H       1  UNL1        0.0000
     83 H          -1.7989    6.4722   -0.3620 H       1  UNL1        0.0000
     84 H           1.0793    5.7360    0.2336 H       1  UNL1        0.0000
     85 H           3.0560    4.6067    1.2443 H       1  UNL1        0.0000
     86 H           2.1631    3.0827    1.3164 H       1  UNL1        0.0000
     87 H           1.6341    4.4627    2.2759 H       1  UNL1        0.0000
     88 H           2.9607    4.8064   -1.1268 H       1  UNL1        0.0000
     89 H           1.4560    4.8488   -2.0467 H       1  UNL1        0.0000
     90 H           2.0375    3.3198   -1.3883 H       1  UNL1        0.0000
     91 H          -0.8986    5.5963    1.5268 H       1  UNL1        0.0000
     92 H          -3.0749    4.5154    0.8193 H       1  UNL1        0.0000
     93 H          -2.8289    4.3814    2.5605 H       1  UNL1        0.0000
     94 H          -2.5228    2.9859    1.5295 H       1  UNL1        0.0000
     95 H          -4.1501   -0.7348   -2.1623 H       1  UNL1        0.0000
     96 H          -4.3283   -1.9889   -0.9715 H       1  UNL1        0.0000
     97 H          -6.5814   -0.0448   -1.7639 H       1  UNL1        0.0000
     98 H          -6.7472   -1.4087   -0.6525 H       1  UNL1        0.0000
     99 H          -6.3885   -1.6959   -2.3542 H       1  UNL1        0.0000
    100 H          -5.6270    1.6244   -0.4177 H       1  UNL1        0.0000
    101 H          -4.6830    1.3497   -2.7434 H       1  UNL1        0.0000
    102 H          -3.0935    1.8405   -2.1483 H       1  UNL1        0.0000
    103 H          -4.4483    2.9803   -2.1140 H       1  UNL1        0.0000
    104 H          -6.0059   -0.2051    0.9780 H       1  UNL1        0.0000
    105 H          -5.2935   -1.8746    2.6435 H       1  UNL1        0.0000
    106 H          -3.6448   -1.8469    2.0077 H       1  UNL1        0.0000
    107 H          -4.9717   -2.4717    1.0175 H       1  UNL1        0.0000
    108 H          -4.9656    1.7546    2.0548 H       1  UNL1        0.0000
    109 H          -3.6313    0.7469    2.6380 H       1  UNL1        0.0000
    110 H          -5.2817    0.4705    3.2152 H       1  UNL1        0.0000
    111 H           5.7346   -1.3356    0.7020 H       1  UNL1        0.0000
    112 H          -0.4186    4.0960    2.2970 H       1  UNL1        0.0000
    113 H          -4.0683    2.1629    0.1526 H       1  UNL1        0.0000
    114 H          -1.0176   -5.9571    0.5955 H       1  UNL1        0.0000
@<TRIPOS>BOND
     1     1    11    1
     2     2    14    1
     3     2     8    1
     4     2    12    1
     5     2     1    1
     6     3     9    1
     7     4    15    1
     8     4     7    1
     9     5    31    1
    10     5    11    1
    11     6    13    1
    12     7     1    1
    13     8     4    1
    14     9     1    1
    15    10     2    1
    16    10     3    1
    17    12     5    1
    18    13     1    1
    19    14     6    1
    20    15    21    1
    21    15    16    1
    22    16    17    1
    23    16    48    1
    24    17    50    1
    25    17    51    1
    26    18    15    1
    27    19    53    1
    28    19    55    1
    29    19    18    1
    30    20    18    1
    31    20    57    1
    32    20    58    1
    33    21    22    1
    34    22    61    1
    35    22    60    1
    36    22    62    1
    37    23     3    1
    38    23    26    1
    39    23    29    1
    40    24    23    1
    41    25    66    1
    42    25    24    1
    43    25    67    1
    44    26    68    1
    45    26    28    1
    46    27    69    1
    47    27    26    1
    48    28    74    1
    49    28    72    1
    50    28    73    1
    51    29    30    1
    52    29    75    1
    53    30    78    1
    54    30    76    1
    55    31    37    1
    56    32    80    1
    57    32    31    1
    58    33    32    1
    59    33    83    1
    60    34    31    1
    61    34    84    1
    62    34    35    1
    63    35    86    1
    64    35    87    1
    65    36    88    1
    66    36    34    1
    67    37    91    1
    68    37    38    1
    69    37   112    1
    70    38    93    1
    71    39     6    1
    72    39    44    1
    73    40    96    1
    74    40    39    1
    75    41    40    1
    76    41    98    1
    77    42   100    1
    78    42    39    1
    79    42   113    1
    80    43    42    1
    81    44    45    1
    82    44    46    1
    83    45   106    1
    84    45   105    1
    85    46   109    1
    86    46   110    1
    87    47    16    1
    88    49    17    1
    89    52    18    1
    90    54    19    1
    91    56    20    1
    92    59    21    1
    93    63    24    1
    94    64    24    1
    95    65    25    1
    96    70    27    1
    97    71    27    1
    98    77    30    1
    99    79    32    1
   100    81    33    1
   101    82    33    1
   102    85    35    1
   103    89    36    1
   104    90    36    1
   105    92    38    1
   106    94    38    1
   107    95    40    1
   108    97    41    1
   109    99    41    1
   110   101    43    1
   111   102    43    1
   112   103    43    1
   113   104    44    1
   114   107    45    1
   115   108    46    1
   116   111    21    1
   117   114    29    1
