@<TRIPOS>MOLECULE
RhRh_ACyPentyl4_2_sp
 126 141 0 0 0
SMALL
GASTEIGER

@<TRIPOS>ATOM
      1 Rh          0.7192   -0.1050   -0.9610 Rh      1  UNL1        0.0000
      2 Rh         -0.3623    0.0207    1.1687 Rh      1  UNL1        0.0000
      3 C           0.8849   -2.5260    0.6260 C.3     1  UNL1        0.0000
      4 C           2.4398    0.7376    1.1842 C.3     1  UNL1        0.0000
      5 C          -0.5579    2.4209   -0.4097 C.3     1  UNL1        0.0000
      6 C          -2.0241   -0.9915   -0.9618 C.3     1  UNL1        0.0000
      7 O           1.2564   -2.0365   -0.4869 O.3     1  UNL1        0.0000
      8 O           0.2050   -1.9265    1.5143 O.3     1  UNL1        0.0000
      9 O          -1.0345   -0.8360   -1.7411 O.3     1  UNL1        0.0000
     10 O          -2.0750   -0.6579    0.2619 O.3     1  UNL1        0.0000
     11 O          -0.8766    1.9522    0.7280 O.3     1  UNL1        0.0000
     12 O           0.1291    1.8347   -1.2993 O.3     1  UNL1        0.0000
     13 O           1.4437    0.6276    1.9614 O.3     1  UNL1        0.0000
     14 O           2.4423    0.5528   -0.0730 O.3     1  UNL1        0.0000
     15 N           2.1559   -4.4355   -0.1582 N.am    1  UNL1        0.0000
     16 N          -4.2163   -1.9469   -0.4907 N.am    1  UNL1        0.0000
     17 N          -2.4174    3.9864   -0.4965 N.am    1  UNL1        0.0000
     18 N           4.5263    1.9753    1.0644 N.am    1  UNL1        0.0000
     19 C           1.3035   -3.9676    0.9406 C.3     1  UNL1        0.0000
     20 C           0.0602   -4.8758    1.1548 C.3     1  UNL1        0.0000
     21 C          -0.3816   -4.6356    2.6074 C.3     1  UNL1        0.0000
     22 C           0.8751   -4.1434    3.3697 C.3     1  UNL1        0.0000
     23 C           2.0059   -4.0463    2.3259 C.3     1  UNL1        0.0000
     24 C           3.5093   -4.0520   -0.2866 C.2     1  UNL1        0.0000
     25 C           3.9156   -4.4100   -1.6719 C.ar    1  UNL1        0.0000
     26 C           5.1511   -4.3106   -2.2934 C.ar    1  UNL1        0.0000
     27 C           5.2258   -4.7005   -3.6358 C.ar    1  UNL1        0.0000
     28 C           4.0942   -5.1675   -4.3178 C.ar    1  UNL1        0.0000
     29 C           2.8517   -5.2595   -3.6795 C.ar    1  UNL1        0.0000
     30 C           2.7912   -4.8733   -2.3492 C.ar    1  UNL1        0.0000
     31 C           1.6318   -4.8272   -1.4166 C.2     1  UNL1        0.0000
     32 C          -3.2569   -1.6612   -1.5763 C.3     1  UNL1        0.0000
     33 C          -3.8484   -0.8115   -2.7265 C.3     1  UNL1        0.0000
     34 C          -4.7316   -1.7912   -3.5203 C.3     1  UNL1        0.0000
     35 C          -4.1512   -3.2046   -3.2285 C.3     1  UNL1        0.0000
     36 C          -2.9154   -2.9667   -2.3418 C.3     1  UNL1        0.0000
     37 C          -3.8422   -2.8058    0.5738 C.2     1  UNL1        0.0000
     38 C          -4.8947   -2.6768    1.6131 C.ar    1  UNL1        0.0000
     39 C          -5.0239   -3.3078    2.8406 C.ar    1  UNL1        0.0000
     40 C          -6.1355   -2.9666    3.6207 C.ar    1  UNL1        0.0000
     41 C          -7.0745   -2.0288    3.1713 C.ar    1  UNL1        0.0000
     42 C          -6.9323   -1.4011    1.9277 C.ar    1  UNL1        0.0000
     43 C          -5.8261   -1.7451    1.1667 C.ar    1  UNL1        0.0000
     44 C          -5.3941   -1.2472   -0.1702 C.2     1  UNL1        0.0000
     45 C          -0.9587    3.8867   -0.6592 C.3     1  UNL1        0.0000
     46 C          -0.1640    4.7473    0.3949 C.3     1  UNL1        0.0000
     47 C           0.6697    5.7406   -0.4289 C.3     1  UNL1        0.0000
     48 C           0.8789    5.0253   -1.7726 C.3     1  UNL1        0.0000
     49 C          -0.4967    4.4050   -2.0419 C.3     1  UNL1        0.0000
     50 C          -3.1151    5.1829   -0.2351 C.2     1  UNL1        0.0000
     51 C          -4.5605    4.8178   -0.2327 C.ar    1  UNL1        0.0000
     52 C          -5.6741    5.5975    0.0343 C.ar    1  UNL1        0.0000
     53 C          -6.9260    4.9732   -0.0405 C.ar    1  UNL1        0.0000
     54 C          -7.0387    3.6184   -0.3745 C.ar    1  UNL1        0.0000
     55 C          -5.9078    2.8379   -0.6511 C.ar    1  UNL1        0.0000
     56 C          -4.6756    3.4697   -0.5719 C.ar    1  UNL1        0.0000
     57 C          -3.3065    2.9431   -0.8187 C.2     1  UNL1        0.0000
     58 C           3.8171    0.9404    1.8277 C.3     1  UNL1        0.0000
     59 C           4.5009   -0.4781    1.7565 C.3     1  UNL1        0.0000
     60 C           4.9302   -0.7962    3.1934 C.3     1  UNL1        0.0000
     61 C           3.8902   -0.0628    4.0537 C.3     1  UNL1        0.0000
     62 C           3.7436    1.2855    3.3365 C.3     1  UNL1        0.0000
     63 C           3.8637    3.1065    0.5601 C.2     1  UNL1        0.0000
     64 C           4.9017    3.9463   -0.0925 C.ar    1  UNL1        0.0000
     65 C           4.7845    5.1337   -0.7980 C.ar    1  UNL1        0.0000
     66 C           5.9658    5.7069   -1.2863 C.ar    1  UNL1        0.0000
     67 C           7.2096    5.1049   -1.0605 C.ar    1  UNL1        0.0000
     68 C           7.3148    3.9075   -0.3408 C.ar    1  UNL1        0.0000
     69 C           6.1399    3.3449    0.1308 C.ar    1  UNL1        0.0000
     70 C           5.9230    2.0980    0.9233 C.2     1  UNL1        0.0000
     71 H          -0.7312   -4.6868    0.4351 H       1  UNL1        0.0000
     72 H           0.4037   -5.9054    1.0130 H       1  UNL1        0.0000
     73 H          -0.8002   -5.5505    3.0375 H       1  UNL1        0.0000
     74 H          -1.1650   -3.8768    2.6259 H       1  UNL1        0.0000
     75 H           1.1633   -4.8201    4.1797 H       1  UNL1        0.0000
     76 H           0.6878   -3.1641    3.8149 H       1  UNL1        0.0000
     77 H           2.6114   -4.9571    2.3198 H       1  UNL1        0.0000
     78 H           2.6849   -3.2134    2.5005 H       1  UNL1        0.0000
     79 H           6.0163   -3.9402   -1.7545 H       1  UNL1        0.0000
     80 H           6.1737   -4.6372   -4.1607 H       1  UNL1        0.0000
     81 H           4.1847   -5.4582   -5.3596 H       1  UNL1        0.0000
     82 H           1.9659   -5.6120   -4.1965 H       1  UNL1        0.0000
     83 H          -4.3574    0.0819   -2.3839 H       1  UNL1        0.0000
     84 H          -2.9847   -0.5006   -3.3193 H       1  UNL1        0.0000
     85 H          -4.7201   -1.5500   -4.5870 H       1  UNL1        0.0000
     86 H          -5.7686   -1.7161   -3.1831 H       1  UNL1        0.0000
     87 H          -4.8861   -3.8162   -2.6957 H       1  UNL1        0.0000
     88 H          -3.8854   -3.7493   -4.1385 H       1  UNL1        0.0000
     89 H          -2.0325   -2.7527   -2.9480 H       1  UNL1        0.0000
     90 H          -2.6700   -3.7948   -1.6805 H       1  UNL1        0.0000
     91 H          -7.6493   -0.6711    1.5683 H       1  UNL1        0.0000
     92 H           0.4912    4.0889    0.9622 H       1  UNL1        0.0000
     93 H          -0.8393    5.2352    1.0941 H       1  UNL1        0.0000
     94 H           0.1017    6.6638   -0.5826 H       1  UNL1        0.0000
     95 H           1.6067    5.9896    0.0769 H       1  UNL1        0.0000
     96 H           1.2022    5.6926   -2.5779 H       1  UNL1        0.0000
     97 H           1.6260    4.2326   -1.6605 H       1  UNL1        0.0000
     98 H          -1.1957    5.1867   -2.3552 H       1  UNL1        0.0000
     99 H          -0.4965    3.6121   -2.7903 H       1  UNL1        0.0000
    100 H          -5.5703    6.6461    0.2914 H       1  UNL1        0.0000
    101 H          -7.8239    5.5478    0.1641 H       1  UNL1        0.0000
    102 H          -8.0229    3.1628   -0.4218 H       1  UNL1        0.0000
    103 H          -5.9886    1.7859   -0.9017 H       1  UNL1        0.0000
    104 H           5.3193   -0.4971    1.0413 H       1  UNL1        0.0000
    105 H           3.7689   -1.2110    1.4127 H       1  UNL1        0.0000
    106 H           4.9678   -1.8737    3.3754 H       1  UNL1        0.0000
    107 H           5.9272   -0.3827    3.3782 H       1  UNL1        0.0000
    108 H           4.1896    0.0492    5.0998 H       1  UNL1        0.0000
    109 H           2.9339   -0.5983    4.0323 H       1  UNL1        0.0000
    110 H           2.8304    1.8288    3.5809 H       1  UNL1        0.0000
    111 H           4.6024    1.9216    3.5737 H       1  UNL1        0.0000
    112 H           8.2722    3.4325   -0.1561 H       1  UNL1        0.0000
    113 O           6.7652    1.3518    1.3803 O.2     1  UNL1        0.0000
    114 O           2.6742    3.3287    0.6806 O.2     1  UNL1        0.0000
    115 O          -2.9780    1.8526   -1.2435 O.2     1  UNL1        0.0000
    116 O          -2.6229    6.2826   -0.0741 O.2     1  UNL1        0.0000
    117 O          -5.9744   -0.4183   -0.8470 O.2     1  UNL1        0.0000
    118 O          -2.8499   -3.5036    0.6090 O.2     1  UNL1        0.0000
    119 O           0.4703   -5.0648   -1.6721 O.2     1  UNL1        0.0000
    120 O           4.1929   -3.5243    0.5685 O.2     1  UNL1        0.0000
    121 H          -4.2876   -4.0306    3.1750 H       1  UNL1        0.0000
    122 H          -6.2738   -3.4336    4.5906 H       1  UNL1        0.0000
    123 H          -7.9242   -1.7849    3.8009 H       1  UNL1        0.0000
    124 H           3.8157    5.5913   -0.9649 H       1  UNL1        0.0000
    125 H           5.9183    6.6346   -1.8475 H       1  UNL1        0.0000
    126 H           8.1064    5.5762   -1.4499 H       1  UNL1        0.0000
@<TRIPOS>BOND
     1     1     7    1
     2     1    14    1
     3     1     2    1
     4     2     8    1
     5     2    13    1
     6     3    19    1
     7     3     8    1
     8     4    58    1
     9     4    13    1
    10     5    11    1
    11     6    10    1
    12     7     3    1
    13     9     6    1
    14     9     1    1
    15    10     2    1
    16    11     2    1
    17    12     1    1
    18    12     5    1
    19    14     4    1
    20    15    19    1
    21    16    44   am
    22    16    37   am
    23    17    50   am
    24    18    58    1
    25    19    20    1
    26    19    23    1
    27    20    21    1
    28    21    74    1
    29    21    73    1
    30    21    22    1
    31    22    76    1
    32    22    75    1
    33    23    78    1
    34    23    22    1
    35    24    15   am
    36    24   120    2
    37    25    24    1
    38    26    79    1
    39    26    25   ar
    40    27    26   ar
    41    28    29   ar
    42    28    27   ar
    43    29    30   ar
    44    30    25   ar
    45    30    31    1
    46    31    15   am
    47    32     6    1
    48    32    16    1
    49    33    83    1
    50    33    32    1
    51    34    35    1
    52    34    86    1
    53    34    33    1
    54    35    87    1
    55    35    36    1
    56    36    90    1
    57    36    32    1
    58    37   118    2
    59    37    38    1
    60    38    39   ar
    61    39   121    1
    62    39    40   ar
    63    40   122    1
    64    41    40   ar
    65    41   123    1
    66    42    41   ar
    67    43    38   ar
    68    43    42   ar
    69    44    43    1
    70    45    17    1
    71    45     5    1
    72    45    46    1
    73    46    92    1
    74    46    93    1
    75    47    95    1
    76    47    46    1
    77    48    97    1
    78    48    47    1
    79    49    48    1
    80    49    45    1
    81    50    51    1
    82    50   116    2
    83    51    52   ar
    84    52   100    1
    85    53    52   ar
    86    53   101    1
    87    54    53   ar
    88    55    56   ar
    89    55    54   ar
    90    56    51   ar
    91    57    56    1
    92    57    17   am
    93    58    62    1
    94    59    58    1
    95    59    60    1
    96    60   106    1
    97    60   107    1
    98    60    61    1
    99    61   108    1
   100    62   111    1
   101    62   110    1
   102    62    61    1
   103    63   114    2
   104    63    18   am
   105    64    69   ar
   106    64    63    1
   107    65    64   ar
   108    66    67   ar
   109    66    65   ar
   110    67    68   ar
   111    68   112    1
   112    68    69   ar
   113    69    70    1
   114    70    18   am
   115    70   113    2
   116    71    20    1
   117    72    20    1
   118    77    23    1
   119    80    27    1
   120    81    28    1
   121    82    29    1
   122    84    33    1
   123    85    34    1
   124    88    35    1
   125    89    36    1
   126    91    42    1
   127    94    47    1
   128    96    48    1
   129    98    49    1
   130    99    49    1
   131   102    54    1
   132   103    55    1
   133   104    59    1
   134   105    59    1
   135   109    61    1
   136   115    57    2
   137   117    44    2
   138   119    31    2
   139   124    65    1
   140   125    66    1
   141   126    67    1
