@<TRIPOS>MOLECULE
RhRh_EtEtiPr-O2C4_26_sp
 114 117 0 0 0
SMALL
GASTEIGER

@<TRIPOS>ATOM
      1 Rh          0.0740   -0.0144   -1.1884 Rh      1  UNL1        0.0000
      2 Rh          0.0993    0.0331    1.1891 Rh      1  UNL1        0.0000
      3 C          -2.5304    0.4247    0.0258 C.3     1  UNL1        0.0000
      4 C           0.4260    2.6329   -0.0811 C.3     1  UNL1        0.0000
      5 C           2.6819   -0.5180   -0.0258 C.3     1  UNL1        0.0000
      6 C          -0.4938   -2.5718    0.0946 C.3     1  UNL1        0.0000
      7 O           0.5625    1.9852   -1.1731 O.3     1  UNL1        0.0000
      8 O           0.2552    2.0923    1.0598 O.3     1  UNL1        0.0000
      9 O          -1.9213    0.5212   -1.0908 O.3     1  UNL1        0.0000
     10 O          -1.9493    0.1949    1.1370 O.3     1  UNL1        0.0000
     11 O           2.0625   -0.5311   -1.1399 O.3     1  UNL1        0.0000
     12 O           2.1437   -0.2364    1.0963 O.3     1  UNL1        0.0000
     13 O          -0.4754   -2.0101   -1.0510 O.3     1  UNL1        0.0000
     14 O          -0.1665   -1.9962    1.1836 O.3     1  UNL1        0.0000
     15 C           0.5151    4.1630   -0.1690 C.3     1  UNL1        0.0000
     16 C          -0.2026    4.6472   -1.4629 C.3     1  UNL1        0.0000
     17 C          -1.5775    4.0609   -1.8059 C.3     1  UNL1        0.0000
     18 C           2.0569    4.4820   -0.3146 C.3     1  UNL1        0.0000
     19 C           2.3511    5.9395   -0.6980 C.3     1  UNL1        0.0000
     20 C           2.8651    4.1083    0.9341 C.3     1  UNL1        0.0000
     21 C          -0.0332    4.8171    1.1204 C.3     1  UNL1        0.0000
     22 C          -1.5393    4.7156    1.3744 C.3     1  UNL1        0.0000
     23 C          -4.0591    0.5640    0.0127 C.3     1  UNL1        0.0000
     24 C          -4.6582   -0.7306   -0.6297 C.3     1  UNL1        0.0000
     25 C          -3.9922   -1.3447   -1.8669 C.3     1  UNL1        0.0000
     26 C          -4.5830    0.6584    1.4916 C.3     1  UNL1        0.0000
     27 C          -4.1465    1.9395    2.2181 C.3     1  UNL1        0.0000
     28 C          -6.1073    0.5026    1.6158 C.3     1  UNL1        0.0000
     29 C          -4.4490    1.8615   -0.7568 C.3     1  UNL1        0.0000
     30 C          -4.4062    1.8670   -2.2860 C.3     1  UNL1        0.0000
     31 C           4.1860   -0.8288   -0.0319 C.3     1  UNL1        0.0000
     32 C           4.4874   -1.7545    1.1772 C.3     1  UNL1        0.0000
     33 C           5.9531   -2.1703    1.3210 C.3     1  UNL1        0.0000
     34 C           4.9592    0.5404    0.0860 C.3     1  UNL1        0.0000
     35 C           4.5073    1.5632   -0.9687 C.3     1  UNL1        0.0000
     36 C           4.9149    1.1659    1.4865 C.3     1  UNL1        0.0000
     37 C           4.5868   -1.5081   -1.3657 C.3     1  UNL1        0.0000
     38 C           4.0327   -2.9158   -1.5895 C.3     1  UNL1        0.0000
     39 C          -0.9138   -4.0460    0.1815 C.3     1  UNL1        0.0000
     40 C          -1.9818   -4.3238   -0.9076 C.3     1  UNL1        0.0000
     41 C          -2.5006   -5.7628   -0.9542 C.3     1  UNL1        0.0000
     42 C          -1.4913   -4.3194    1.5942 C.3     1  UNL1        0.0000
     43 C          -2.7891   -3.5735    1.9229 C.3     1  UNL1        0.0000
     44 C           0.3694   -4.9313   -0.0456 C.3     1  UNL1        0.0000
     45 C           0.8547   -4.9300   -1.5025 C.3     1  UNL1        0.0000
     46 C           1.5307   -4.5709    0.8933 C.3     1  UNL1        0.0000
     47 H          -0.2856    5.7375   -1.3972 H       1  UNL1        0.0000
     48 H           0.4646    4.4373   -2.3053 H       1  UNL1        0.0000
     49 H          -2.3522    4.3545   -1.0973 H       1  UNL1        0.0000
     50 H          -1.5523    2.9718   -1.8483 H       1  UNL1        0.0000
     51 H          -1.8879    4.4215   -2.7921 H       1  UNL1        0.0000
     52 H           2.4037    3.8533   -1.1435 H       1  UNL1        0.0000
     53 H           1.9091    6.2211   -1.6556 H       1  UNL1        0.0000
     54 H           3.4338    6.0785   -0.7819 H       1  UNL1        0.0000
     55 H           1.9931    6.6408    0.0626 H       1  UNL1        0.0000
     56 H           3.9348    4.1441    0.7105 H       1  UNL1        0.0000
     57 H           2.6322    3.1040    1.2924 H       1  UNL1        0.0000
     58 H           2.6786    4.8081    1.7543 H       1  UNL1        0.0000
     59 H           0.4841    4.3700    1.9708 H       1  UNL1        0.0000
     60 H          -1.7666    5.0335    2.3969 H       1  UNL1        0.0000
     61 H          -1.8934    3.6886    1.2657 H       1  UNL1        0.0000
     62 H          -2.1175    5.3527    0.7009 H       1  UNL1        0.0000
     63 H          -4.6783   -1.4982    0.1537 H       1  UNL1        0.0000
     64 H          -5.7050   -0.5104   -0.8648 H       1  UNL1        0.0000
     65 H          -4.5556   -2.2366   -2.1628 H       1  UNL1        0.0000
     66 H          -2.9636   -1.6484   -1.6745 H       1  UNL1        0.0000
     67 H          -3.9736   -0.6649   -2.7178 H       1  UNL1        0.0000
     68 H          -4.1268   -0.1849    2.0207 H       1  UNL1        0.0000
     69 H          -4.4261    1.8769    3.2748 H       1  UNL1        0.0000
     70 H          -4.6362    2.8277    1.8063 H       1  UNL1        0.0000
     71 H          -3.0669    2.0842    2.1712 H       1  UNL1        0.0000
     72 H          -6.3927    0.5837    2.6693 H       1  UNL1        0.0000
     73 H          -6.4659   -0.4634    1.2546 H       1  UNL1        0.0000
     74 H          -6.6487    1.2868    1.0760 H       1  UNL1        0.0000
     75 H          -3.8167    2.6745   -0.3881 H       1  UNL1        0.0000
     76 H          -4.6478    2.8712   -2.6494 H       1  UNL1        0.0000
     77 H          -5.1428    1.1818   -2.7146 H       1  UNL1        0.0000
     78 H          -3.4198    1.5978   -2.6642 H       1  UNL1        0.0000
     79 H           4.1475   -1.2623    2.0894 H       1  UNL1        0.0000
     80 H           3.8723   -2.6545    1.0857 H       1  UNL1        0.0000
     81 H           6.0767   -2.8064    2.2029 H       1  UNL1        0.0000
     82 H           6.6161   -1.3088    1.4431 H       1  UNL1        0.0000
     83 H           6.3054   -2.7386    0.4552 H       1  UNL1        0.0000
     84 H           6.0061    0.2923   -0.1303 H       1  UNL1        0.0000
     85 H           5.1078    2.4741   -0.8862 H       1  UNL1        0.0000
     86 H           3.4595    1.8432   -0.8344 H       1  UNL1        0.0000
     87 H           4.6170    1.1858   -1.9875 H       1  UNL1        0.0000
     88 H           5.4224    2.1353    1.4753 H       1  UNL1        0.0000
     89 H           5.4155    0.5428    2.2311 H       1  UNL1        0.0000
     90 H           3.8873    1.3240    1.8194 H       1  UNL1        0.0000
     91 H           5.6814   -1.5357   -1.4055 H       1  UNL1        0.0000
     92 H           4.4117   -3.6362   -0.8588 H       1  UNL1        0.0000
     93 H           4.3134   -3.2786   -2.5833 H       1  UNL1        0.0000
     94 H           2.9434   -2.9177   -1.5346 H       1  UNL1        0.0000
     95 H          -2.8268   -3.6526   -0.7388 H       1  UNL1        0.0000
     96 H          -1.5797   -4.0412   -1.8814 H       1  UNL1        0.0000
     97 H          -2.9838   -6.0559   -0.0175 H       1  UNL1        0.0000
     98 H          -1.7041   -6.4850   -1.1559 H       1  UNL1        0.0000
     99 H          -3.2437   -5.8649   -1.7511 H       1  UNL1        0.0000
    100 H          -1.6538   -5.3989    1.6874 H       1  UNL1        0.0000
    101 H          -3.6261   -3.9027    1.2997 H       1  UNL1        0.0000
    102 H          -2.6685   -2.4940    1.7928 H       1  UNL1        0.0000
    103 H          -3.0712   -3.7492    2.9656 H       1  UNL1        0.0000
    104 H           0.0566   -5.9532    0.2035 H       1  UNL1        0.0000
    105 H           1.8004   -5.4744   -1.5828 H       1  UNL1        0.0000
    106 H           1.0199   -3.9122   -1.8643 H       1  UNL1        0.0000
    107 H           0.1408   -5.4094   -2.1762 H       1  UNL1        0.0000
    108 H           1.2482   -4.6179    1.9469 H       1  UNL1        0.0000
    109 H           1.9025   -3.5620    0.6995 H       1  UNL1        0.0000
    110 H           2.3608   -5.2669    0.7380 H       1  UNL1        0.0000
    111 H           0.2498    5.8753    1.1022 H       1  UNL1        0.0000
    112 H           4.2616   -0.8763   -2.1935 H       1  UNL1        0.0000
    113 H          -0.7418   -4.0505    2.3392 H       1  UNL1        0.0000
    114 H          -5.4689    2.1156   -0.4492 H       1  UNL1        0.0000
@<TRIPOS>BOND
     1     1     7    1
     2     1    11    1
     3     1     9    1
     4     1    13    1
     5     1     2    1
     6     3    10    1
     7     4     8    1
     8     5    12    1
     9     6    39    1
    10     6    14    1
    11     7     4    1
    12     8     2    1
    13     9     3    1
    14    10     2    1
    15    11     5    1
    16    12     2    1
    17    13     6    1
    18    14     2    1
    19    15     4    1
    20    15    21    1
    21    16    47    1
    22    16    15    1
    23    17    16    1
    24    17    49    1
    25    18    15    1
    26    18    20    1
    27    19    18    1
    28    19    55    1
    29    20    57    1
    30    20    58    1
    31    21    22    1
    32    21    59    1
    33    22    60    1
    34    23     3    1
    35    23    26    1
    36    24    23    1
    37    24    63    1
    38    25    66    1
    39    25    24    1
    40    26    28    1
    41    26    68    1
    42    26    27    1
    43    27    69    1
    44    28    72    1
    45    29   114    1
    46    29    75    1
    47    29    23    1
    48    30    29    1
    49    31     5    1
    50    31    34    1
    51    31    32    1
    52    32    33    1
    53    32    79    1
    54    33    82    1
    55    33    81    1
    56    34    36    1
    57    35    85    1
    58    35    86    1
    59    35    34    1
    60    36    90    1
    61    36    89    1
    62    37    31    1
    63    38    94    1
    64    38    37    1
    65    38    92    1
    66    39    42    1
    67    40    95    1
    68    40    39    1
    69    41    40    1
    70    41    97    1
    71    42   100    1
    72    42    43    1
    73    42   113    1
    74    43   103    1
    75    44    39    1
    76    44   104    1
    77    44    46    1
    78    45    44    1
    79    46   108    1
    80    48    16    1
    81    50    17    1
    82    51    17    1
    83    52    18    1
    84    53    19    1
    85    54    19    1
    86    56    20    1
    87    61    22    1
    88    62    22    1
    89    64    24    1
    90    65    25    1
    91    67    25    1
    92    70    27    1
    93    71    27    1
    94    73    28    1
    95    74    28    1
    96    76    30    1
    97    77    30    1
    98    78    30    1
    99    80    32    1
   100    83    33    1
   101    84    34    1
   102    87    35    1
   103    88    36    1
   104    91    37    1
   105    93    38    1
   106    96    40    1
   107    98    41    1
   108    99    41    1
   109   101    43    1
   110   102    43    1
   111   105    45    1
   112   106    45    1
   113   107    45    1
   114   109    46    1
   115   110    46    1
   116   111    21    1
   117   112    37    1
