@<TRIPOS>MOLECULE
RhRh_S-pBrTPCP_C4-2_20_sp
 166 185 0 0 0
SMALL
GASTEIGER

@<TRIPOS>ATOM
      1 Rh          0.8419   -0.2832   -1.7044 Rh      1  UNL1        0.0000
      2 Rh          0.5142   -0.2573    0.6616 Rh      1  UNL1        0.0000
      3 C           1.1454    2.3137   -0.4715 C.3     1  UNL1        0.0000
      4 C          -1.8525    0.4324   -0.8436 C.3     1  UNL1        0.0000
      5 C          -0.0896   -2.7816   -0.5948 C.3     1  UNL1        0.0000
      6 C           3.2041   -0.9116   -0.1917 C.3     1  UNL1        0.0000
      7 O           2.7203   -1.0176   -1.3655 O.3     1  UNL1        0.0000
      8 O           2.5306   -0.6233    0.8520 O.3     1  UNL1        0.0000
      9 O           0.1611   -2.2293   -1.7101 O.3     1  UNL1        0.0000
     10 O           0.0738   -2.2548    0.5520 O.3     1  UNL1        0.0000
     11 O          -1.0982    0.4386   -1.8700 O.3     1  UNL1        0.0000
     12 O          -1.4802    0.1278    0.3376 O.3     1  UNL1        0.0000
     13 O           1.4759    1.6907   -1.5294 O.3     1  UNL1        0.0000
     14 O           0.8432    1.7567    0.6351 O.3     1  UNL1        0.0000
     15 BR          7.0582   -0.1649    5.6162 Br      1  UNL1        0.0000
     16 BR         -6.5263   -3.5098    1.4432 Br      1  UNL1        0.0000
     17 BR         -6.4703    1.4487    4.2714 Br      1  UNL1        0.0000
     18 BR         -1.9652    6.2876    4.3209 Br      1  UNL1        0.0000
     19 C           4.9789    0.2545    2.0326 C.ar    1  UNL1        0.0000
     20 C           4.6771   -1.1371   -0.0327 C.3     1  UNL1        0.0000
     21 C           5.6100   -0.7395   -1.2367 C.3     1  UNL1        0.0000
     22 C           6.5720   -1.6855    3.2387 C.ar    1  UNL1        0.0000
     23 C           5.2241   -0.9467    1.3510 C.ar    1  UNL1        0.0000
     24 C           5.5128    0.4924    3.2938 C.ar    1  UNL1        0.0000
     25 C           6.9853   -0.2482   -0.8606 C.ar    1  UNL1        0.0000
     26 C           5.0541   -0.0769   -2.4684 C.ar    1  UNL1        0.0000
     27 C           4.4265    1.1696   -2.4167 C.ar    1  UNL1        0.0000
     28 C           5.2787   -2.1682   -0.9741 C.3     1  UNL1        0.0000
     29 C           7.1635    1.0455   -0.3554 C.ar    1  UNL1        0.0000
     30 C           6.0247   -1.9059    1.9745 C.ar    1  UNL1        0.0000
     31 C           8.1095   -1.0581   -1.0405 C.ar    1  UNL1        0.0000
     32 C           6.3107   -0.4844    3.8868 C.ar    1  UNL1        0.0000
     33 C           9.5483    0.6895   -0.1950 C.ar    1  UNL1        0.0000
     34 C           3.9164    1.7548   -3.5717 C.ar    1  UNL1        0.0000
     35 C           4.6956   -0.1232   -4.8681 C.ar    1  UNL1        0.0000
     36 C           5.1951   -0.7109   -3.7065 C.ar    1  UNL1        0.0000
     37 C           9.3839   -0.5943   -0.7114 C.ar    1  UNL1        0.0000
     38 C           8.4318    1.5098   -0.0199 C.ar    1  UNL1        0.0000
     39 C           4.0461    1.1101   -4.8016 C.ar    1  UNL1        0.0000
     40 C          -2.3794   -3.6596    1.2194 C.ar    1  UNL1        0.0000
     41 C          -0.7134   -4.1553   -0.6088 C.3     1  UNL1        0.0000
     42 C           0.1922   -5.3709   -0.3282 C.3     1  UNL1        0.0000
     43 C          -4.5230   -4.3097   -0.4420 C.ar    1  UNL1        0.0000
     44 C          -2.1243   -4.1126   -0.0833 C.ar    1  UNL1        0.0000
     45 C          -3.6802   -3.5115    1.6867 C.ar    1  UNL1        0.0000
     46 C          -0.4186   -6.5026    0.4590 C.ar    1  UNL1        0.0000
     47 C           1.6649   -5.1758   -0.0665 C.ar    1  UNL1        0.0000
     48 C           2.5914   -5.8466   -0.8736 C.ar    1  UNL1        0.0000
     49 C          -0.3274   -5.0936   -1.7173 C.3     1  UNL1        0.0000
     50 C          -0.8765   -7.6629   -0.1699 C.ar    1  UNL1        0.0000
     51 C          -3.2108   -4.4499   -0.8956 C.ar    1  UNL1        0.0000
     52 C          -0.5151   -6.4107    1.8534 C.ar    1  UNL1        0.0000
     53 C          -4.7439   -3.8223    0.8418 C.ar    1  UNL1        0.0000
     54 C          -1.5364   -8.5983    1.9589 C.ar    1  UNL1        0.0000
     55 C           3.9557   -5.7839   -0.5952 C.ar    1  UNL1        0.0000
     56 C           3.4981   -4.3537    1.2950 C.ar    1  UNL1        0.0000
     57 C           2.1335   -4.4241    1.0182 C.ar    1  UNL1        0.0000
     58 C          -1.0725   -7.4464    2.5976 C.ar    1  UNL1        0.0000
     59 C          -1.4325   -8.7052    0.5735 C.ar    1  UNL1        0.0000
     60 C           4.4103   -5.0433    0.4965 C.ar    1  UNL1        0.0000
     61 C          -4.5874   -0.1323    0.9138 C.ar    1  UNL1        0.0000
     62 C          -3.2860    0.8372   -1.0094 C.3     1  UNL1        0.0000
     63 C          -4.0856    0.3501   -2.2706 C.3     1  UNL1        0.0000
     64 C          -4.9341    2.3943    2.0474 C.ar    1  UNL1        0.0000
     65 C          -4.0430    0.9878    0.2779 C.ar    1  UNL1        0.0000
     66 C          -5.3118   -0.0044    2.0938 C.ar    1  UNL1        0.0000
     67 C          -5.5294   -0.0131   -2.0156 C.ar    1  UNL1        0.0000
     68 C          -3.3989   -0.5050   -3.3011 C.ar    1  UNL1        0.0000
     69 C          -3.4183   -0.1038   -4.6409 C.ar    1  UNL1        0.0000
     70 C          -3.6294    1.7702   -2.1575 C.3     1  UNL1        0.0000
     71 C          -5.8951   -1.3646   -1.9427 C.ar    1  UNL1        0.0000
     72 C          -4.2259    2.2464    0.8543 C.ar    1  UNL1        0.0000
     73 C          -6.5131    0.9516   -1.7730 C.ar    1  UNL1        0.0000
     74 C          -5.4724    1.2620    2.6522 C.ar    1  UNL1        0.0000
     75 C          -8.1560   -0.7677   -1.3357 C.ar    1  UNL1        0.0000
     76 C          -2.8145   -0.8861   -5.6249 C.ar    1  UNL1        0.0000
     77 C          -2.1682   -2.4919   -3.9440 C.ar    1  UNL1        0.0000
     78 C          -2.7751   -1.7081   -2.9655 C.ar    1  UNL1        0.0000
     79 C          -7.8136    0.5794   -1.4359 C.ar    1  UNL1        0.0000
     80 C          -7.1903   -1.7395   -1.5970 C.ar    1  UNL1        0.0000
     81 C          -2.1847   -2.0828   -5.2775 C.ar    1  UNL1        0.0000
     82 C           0.9737    5.4139    1.4953 C.ar    1  UNL1        0.0000
     83 C           1.0905    3.8154   -0.4841 C.3     1  UNL1        0.0000
     84 C           0.9317    4.5972   -1.8332 C.3     1  UNL1        0.0000
     85 C          -1.5890    4.5075    2.1113 C.ar    1  UNL1        0.0000
     86 C           0.4037    4.4084    0.7157 C.ar    1  UNL1        0.0000
     87 C           0.2797    5.9812    2.5662 C.ar    1  UNL1        0.0000
     88 C           0.1268    5.8702   -1.7361 C.ar    1  UNL1        0.0000
     89 C           0.7570    3.9207   -3.1673 C.ar    1  UNL1        0.0000
     90 C           1.5561    4.3226   -4.2421 C.ar    1  UNL1        0.0000
     91 C           2.2569    4.5335   -1.1465 C.3     1  UNL1        0.0000
     92 C          -1.2721    5.8016   -1.7181 C.ar    1  UNL1        0.0000
     93 C          -0.8870    3.9652    1.0436 C.ar    1  UNL1        0.0000
     94 C           0.7392    7.1240   -1.6948 C.ar    1  UNL1        0.0000
     95 C          -0.9980    5.5230    2.8617 C.ar    1  UNL1        0.0000
     96 C          -1.4177    8.2094   -1.5839 C.ar    1  UNL1        0.0000
     97 C           1.3915    3.7461   -5.5026 C.ar    1  UNL1        0.0000
     98 C          -0.3855    2.3619   -4.6338 C.ar    1  UNL1        0.0000
     99 C          -0.2273    2.9566   -3.3847 C.ar    1  UNL1        0.0000
    100 C          -0.0272    8.2885   -1.6193 C.ar    1  UNL1        0.0000
    101 C          -2.0389    6.9593   -1.6365 C.ar    1  UNL1        0.0000
    102 C           0.4268    2.7568   -5.6990 C.ar    1  UNL1        0.0000
    103 H           4.3525    1.0106    1.5735 H       1  UNL1        0.0000
    104 H           7.1935   -2.4373    3.7106 H       1  UNL1        0.0000
    105 H           5.3165    1.4242    3.8108 H       1  UNL1        0.0000
    106 H           4.2765    1.6539   -1.4573 H       1  UNL1        0.0000
    107 H           6.0450   -2.8165   -0.5706 H       1  UNL1        0.0000
    108 H           4.5746   -2.6551   -1.6370 H       1  UNL1        0.0000
    109 H           6.3003    1.6862   -0.2139 H       1  UNL1        0.0000
    110 H           7.9885   -2.0573   -1.4470 H       1  UNL1        0.0000
    111 H          10.5375    1.0502    0.0693 H       1  UNL1        0.0000
    112 H           3.3823    2.6943   -3.5161 H       1  UNL1        0.0000
    113 H           4.8070   -0.6321   -5.8211 H       1  UNL1        0.0000
    114 H           5.6873   -1.6777   -3.7541 H       1  UNL1        0.0000
    115 H          10.2461   -1.2378   -0.8585 H       1  UNL1        0.0000
    116 H           8.5497    2.5109    0.3835 H       1  UNL1        0.0000
    117 H           3.6310    1.5657   -5.6949 H       1  UNL1        0.0000
    118 H          -1.5504   -3.3855    1.8578 H       1  UNL1        0.0000
    119 H          -5.3583   -4.5564   -1.0862 H       1  UNL1        0.0000
    120 H          -3.8676   -3.1374    2.6859 H       1  UNL1        0.0000
    121 H           2.2341   -6.4324   -1.7152 H       1  UNL1        0.0000
    122 H          -1.0940   -5.7451   -2.1196 H       1  UNL1        0.0000
    123 H           0.3772   -4.7128   -2.4475 H       1  UNL1        0.0000
    124 H          -0.7917   -7.7579   -1.2477 H       1  UNL1        0.0000
    125 H          -0.1501   -5.5215    2.3557 H       1  UNL1        0.0000
    126 H          -1.9728   -9.4058    2.5384 H       1  UNL1        0.0000
    127 H           4.6607   -6.3179   -1.2251 H       1  UNL1        0.0000
    128 H           3.8464   -3.7538    2.1291 H       1  UNL1        0.0000
    129 H           1.4328   -3.8752    1.6338 H       1  UNL1        0.0000
    130 H          -1.1470   -7.3544    3.6768 H       1  UNL1        0.0000
    131 H          -1.7822   -9.6001    0.0676 H       1  UNL1        0.0000
    132 H           5.4718   -5.0045    0.7218 H       1  UNL1        0.0000
    133 H          -4.4718   -1.1120    0.4692 H       1  UNL1        0.0000
    134 H          -5.0764    3.3718    2.4935 H       1  UNL1        0.0000
    135 H          -5.7693   -0.8737    2.5495 H       1  UNL1        0.0000
    136 H          -3.9068    0.8284   -4.9090 H       1  UNL1        0.0000
    137 H          -4.3458    2.5534   -1.9420 H       1  UNL1        0.0000
    138 H          -2.8183    2.0642   -2.8102 H       1  UNL1        0.0000
    139 H          -5.1542   -2.1288   -2.1412 H       1  UNL1        0.0000
    140 H          -6.2701    2.0060   -1.8286 H       1  UNL1        0.0000
    141 H          -9.1652   -1.0575   -1.0606 H       1  UNL1        0.0000
    142 H          -2.8348   -0.5611   -6.6608 H       1  UNL1        0.0000
    143 H          -1.6601   -3.4056   -3.6568 H       1  UNL1        0.0000
    144 H          -2.7395   -2.0201   -1.9288 H       1  UNL1        0.0000
    145 H          -8.5569    1.3471   -1.2443 H       1  UNL1        0.0000
    146 H          -7.4429   -2.7914   -1.5187 H       1  UNL1        0.0000
    147 H          -1.7077   -2.6896   -6.0410 H       1  UNL1        0.0000
    148 H           1.9737    5.7720    1.2785 H       1  UNL1        0.0000
    149 H          -2.5755    4.1403    2.3652 H       1  UNL1        0.0000
    150 H           0.7303    6.7656    3.1624 H       1  UNL1        0.0000
    151 H           2.3125    5.0870   -4.0878 H       1  UNL1        0.0000
    152 H           2.6477    5.4164   -0.6552 H       1  UNL1        0.0000
    153 H           3.0089    3.8928   -1.5921 H       1  UNL1        0.0000
    154 H          -1.7565    4.8317   -1.7619 H       1  UNL1        0.0000
    155 H           1.8219    7.1942   -1.7250 H       1  UNL1        0.0000
    156 H          -2.0150    9.1133   -1.5175 H       1  UNL1        0.0000
    157 H           2.0212    4.0663   -6.3274 H       1  UNL1        0.0000
    158 H          -1.1283    1.5809   -4.7655 H       1  UNL1        0.0000
    159 H          -0.8316    2.6205   -2.5554 H       1  UNL1        0.0000
    160 H           0.4651    9.2557   -1.5871 H       1  UNL1        0.0000
    161 H          -3.1220    6.8885   -1.6103 H       1  UNL1        0.0000
    162 H           0.3086    2.2967   -6.6753 H       1  UNL1        0.0000
    163 H          -1.3428    3.1644    0.4731 H       1  UNL1        0.0000
    164 H           6.2355   -2.8434    1.4749 H       1  UNL1        0.0000
    165 H          -3.8165    3.1266    0.3678 H       1  UNL1        0.0000
    166 H          -3.0428   -4.7919   -1.9103 H       1  UNL1        0.0000
@<TRIPOS>BOND
     1     1    13    1
     2     1     7    1
     3     1     2    1
     4     2     8    1
     5     3    13    1
     6     3    14    1
     7     4    11    1
     8     4    12    1
     9     5     9    1
    10     5    10    1
    11     6     7    1
    12     6    20    1
    13     6     8    1
    14     9     1    1
    15    10     2    1
    16    11     1    1
    17    12     2    1
    18    14     2    1
    19    19    24   ar
    20    20    23    1
    21    21    28    1
    22    21    25    1
    23    21    20    1
    24    22   104    1
    25    22    32   ar
    26    23    30   ar
    27    23    19   ar
    28    24   105    1
    29    24    32   ar
    30    25    29   ar
    31    26    27   ar
    32    26    21    1
    33    27   106    1
    34    28   107    1
    35    28    20    1
    36    29   109    1
    37    29    38   ar
    38    30    22   ar
    39    31    25   ar
    40    31    37   ar
    41    32    15    1
    42    33    38   ar
    43    33   111    1
    44    34   112    1
    45    34    27   ar
    46    35    39   ar
    47    35    36   ar
    48    36    26   ar
    49    37    33   ar
    50    38   116    1
    51    39    34   ar
    52    40    45   ar
    53    40   118    1
    54    41     5    1
    55    41    42    1
    56    41    44    1
    57    42    47    1
    58    42    46    1
    59    43    53   ar
    60    44    40   ar
    61    45   120    1
    62    46    52   ar
    63    47    57   ar
    64    48    55   ar
    65    48    47   ar
    66    49    41    1
    67    49    42    1
    68    50    46   ar
    69    50    59   ar
    70    51    43   ar
    71    51    44   ar
    72    52   125    1
    73    52    58   ar
    74    53    16    1
    75    53    45   ar
    76    54   126    1
    77    54    58   ar
    78    55    60   ar
    79    56   128    1
    80    57    56   ar
    81    57   129    1
    82    58   130    1
    83    59    54   ar
    84    60   132    1
    85    60    56   ar
    86    61    66   ar
    87    62     4    1
    88    62    65    1
    89    63    70    1
    90    63    67    1
    91    63    62    1
    92    64   134    1
    93    64    74   ar
    94    65    72   ar
    95    65    61   ar
    96    66   135    1
    97    66    74   ar
    98    67    71   ar
    99    67    73   ar
   100    68    78   ar
   101    68    63    1
   102    69    68   ar
   103    70   137    1
   104    70    62    1
   105    71    80   ar
   106    72    64   ar
   107    73    79   ar
   108    74    17    1
   109    75   141    1
   110    76    81   ar
   111    76    69   ar
   112    77   143    1
   113    77    78   ar
   114    78   144    1
   115    79    75   ar
   116    79   145    1
   117    80   146    1
   118    80    75   ar
   119    81    77   ar
   120    82    87   ar
   121    83     3    1
   122    83    86    1
   123    84    88    1
   124    84    91    1
   125    84    83    1
   126    85   149    1
   127    85    95   ar
   128    86    93   ar
   129    86    82   ar
   130    87    95   ar
   131    87   150    1
   132    88    92   ar
   133    88    94   ar
   134    89    84    1
   135    90   151    1
   136    90    89   ar
   137    91   152    1
   138    91    83    1
   139    92   101   ar
   140    93    85   ar
   141    94   100   ar
   142    95    18    1
   143    96   156    1
   144    97    90   ar
   145    98    99   ar
   146    99    89   ar
   147    99   159    1
   148   100   160    1
   149   100    96   ar
   150   101   161    1
   151   101    96   ar
   152   102    97   ar
   153   102    98   ar
   154   103    19    1
   155   108    28    1
   156   110    31    1
   157   113    35    1
   158   114    36    1
   159   115    37    1
   160   117    39    1
   161   119    43    1
   162   121    48    1
   163   122    49    1
   164   123    49    1
   165   124    50    1
   166   127    55    1
   167   131    59    1
   168   133    61    1
   169   136    69    1
   170   138    70    1
   171   139    71    1
   172   140    73    1
   173   142    76    1
   174   147    81    1
   175   148    82    1
   176   153    91    1
   177   154    92    1
   178   155    94    1
   179   157    97    1
   180   158    98    1
   181   162   102    1
   182   163    93    1
   183   164    30    1
   184   165    72    1
   185   166    51    1
