@<TRIPOS>MOLECULE
RhRh_MES-O2C4_2_sp
 94 101 0 0 0
SMALL
GASTEIGER

@<TRIPOS>ATOM
      1 Rh         -0.0000    0.0009    1.1942 Rh      1  UNL1        0.0000
      2 Rh          0.0000   -0.0011   -1.1942 Rh      1  UNL1        0.0000
      3 C           1.8670    1.8609   -0.0017 C.3     1  UNL1        0.0000
      4 C          -1.8671   -1.8610    0.0011 C.3     1  UNL1        0.0000
      5 C           1.8663   -1.8618    0.0017 C.3     1  UNL1        0.0000
      6 C          -1.8663    1.8616   -0.0011 C.3     1  UNL1        0.0000
      7 O           1.3846   -1.5157    1.1304 O.3     1  UNL1        0.0000
      8 O           1.5178   -1.3842   -1.1281 O.3     1  UNL1        0.0000
      9 O           1.5184    1.3834    1.1281 O.3     1  UNL1        0.0000
     10 O           1.3852    1.5150   -1.1304 O.3     1  UNL1        0.0000
     11 O          -1.5178    1.3820   -1.1301 O.3     1  UNL1        0.0000
     12 O          -1.3846    1.5173    1.1282 O.3     1  UNL1        0.0000
     13 O          -1.3852   -1.5170   -1.1282 O.3     1  UNL1        0.0000
     14 O          -1.5184   -1.3816    1.1301 O.3     1  UNL1        0.0000
     15 C           2.9240   -2.9093    0.0026 C.ar    1  UNL1        0.0000
     16 C           4.0672   -2.7354    0.8067 C.ar    1  UNL1        0.0000
     17 C           4.2571   -1.5168    1.6793 C.3     1  UNL1        0.0000
     18 C           5.0497   -3.7269    0.7807 C.ar    1  UNL1        0.0000
     19 C           4.9129   -4.8813    0.0056 C.ar    1  UNL1        0.0000
     20 C           5.9984   -5.9280   -0.0181 C.3     1  UNL1        0.0000
     21 C           3.7585   -5.0315   -0.7673 C.ar    1  UNL1        0.0000
     22 C           2.7601   -4.0564   -0.7982 C.ar    1  UNL1        0.0000
     23 C           2.9249    2.9081   -0.0025 C.ar    1  UNL1        0.0000
     24 C           4.0682    2.7339   -0.8065 C.ar    1  UNL1        0.0000
     25 C           4.2578    1.5152   -1.6790 C.3     1  UNL1        0.0000
     26 C           5.0509    3.7252   -0.7806 C.ar    1  UNL1        0.0000
     27 C           4.9143    4.8797   -0.0056 C.ar    1  UNL1        0.0000
     28 C           6.0000    5.9261    0.0181 C.3     1  UNL1        0.0000
     29 C           3.7599    5.0302    0.7672 C.ar    1  UNL1        0.0000
     30 C           2.7612    4.0553    0.7981 C.ar    1  UNL1        0.0000
     31 C          -2.9237    2.9092   -0.0014 C.ar    1  UNL1        0.0000
     32 C          -2.7634    4.0526   -0.8081 C.ar    1  UNL1        0.0000
     33 C          -1.5481    4.2536   -1.6828 C.3     1  UNL1        0.0000
     34 C          -3.7653    5.0244   -0.7829 C.ar    1  UNL1        0.0000
     35 C          -4.9172    4.8767   -0.0059 C.ar    1  UNL1        0.0000
     36 C          -5.9753    5.9510    0.0168 C.3     1  UNL1        0.0000
     37 C          -5.0539    3.7224    0.7694 C.ar    1  UNL1        0.0000
     38 C          -4.0681    2.7345    0.8011 C.ar    1  UNL1        0.0000
     39 C          -2.9251   -2.9080    0.0014 C.ar    1  UNL1        0.0000
     40 C          -4.0693   -2.7327   -0.8013 C.ar    1  UNL1        0.0000
     41 C          -4.2594   -1.5131   -1.6725 C.3     1  UNL1        0.0000
     42 C          -5.0556   -3.7201   -0.7696 C.ar    1  UNL1        0.0000
     43 C          -4.9197   -4.8745    0.0058 C.ar    1  UNL1        0.0000
     44 C          -5.9783   -5.9482   -0.0169 C.3     1  UNL1        0.0000
     45 C          -3.7680   -5.0227    0.7830 C.ar    1  UNL1        0.0000
     46 C          -2.7656   -4.0515    0.8083 C.ar    1  UNL1        0.0000
     47 C           1.5419    4.2602    1.6662 C.3     1  UNL1        0.0000
     48 C           1.5407   -4.2609   -1.6663 C.3     1  UNL1        0.0000
     49 C          -4.2589    1.5149    1.6722 C.3     1  UNL1        0.0000
     50 C          -1.5505   -4.2530    1.6831 C.3     1  UNL1        0.0000
     51 H           3.6300   -1.5743    2.5737 H       1  UNL1        0.0000
     52 H           3.9789   -0.5912    1.1675 H       1  UNL1        0.0000
     53 H           5.3002   -1.4326    1.9939 H       1  UNL1        0.0000
     54 H           5.9425   -3.5960    1.3869 H       1  UNL1        0.0000
     55 H           5.5877   -6.9247   -0.2025 H       1  UNL1        0.0000
     56 H           6.5493   -5.9538    0.9263 H       1  UNL1        0.0000
     57 H           6.7242   -5.7220   -0.8143 H       1  UNL1        0.0000
     58 H           3.6307    1.5727   -2.5735 H       1  UNL1        0.0000
     59 H           3.9794    0.5897   -1.1671 H       1  UNL1        0.0000
     60 H           5.3009    1.4307   -1.9937 H       1  UNL1        0.0000
     61 H           5.9437    3.5941   -1.3867 H       1  UNL1        0.0000
     62 H           6.7269    5.7188    0.8130 H       1  UNL1        0.0000
     63 H           5.5898    6.9227    0.2042 H       1  UNL1        0.0000
     64 H           6.5497    5.9530   -0.9271 H       1  UNL1        0.0000
     65 H          -0.6191    3.9853   -1.1717 H       1  UNL1        0.0000
     66 H          -1.6005    3.6247   -2.5763 H       1  UNL1        0.0000
     67 H          -1.4747    5.2970   -1.9990 H       1  UNL1        0.0000
     68 H          -3.6448    5.9173   -1.3910 H       1  UNL1        0.0000
     69 H          -6.0138    6.4941   -0.9317 H       1  UNL1        0.0000
     70 H          -6.9663    5.5311    0.2115 H       1  UNL1        0.0000
     71 H          -5.7714    6.6854    0.8056 H       1  UNL1        0.0000
     72 H          -5.3029   -1.4275   -1.9853 H       1  UNL1        0.0000
     73 H          -3.9790   -0.5880   -1.1610 H       1  UNL1        0.0000
     74 H          -3.6341   -1.5710   -2.5682 H       1  UNL1        0.0000
     75 H          -5.9521   -3.5849   -1.3695 H       1  UNL1        0.0000
     76 H          -5.7731   -6.6845   -0.8037 H       1  UNL1        0.0000
     77 H          -6.0191   -6.4893    0.9327 H       1  UNL1        0.0000
     78 H          -6.9686   -5.5282   -0.2146 H       1  UNL1        0.0000
     79 H           1.4674    5.3048    1.9780 H       1  UNL1        0.0000
     80 H           0.6150    3.9901    1.1521 H       1  UNL1        0.0000
     81 H           1.5901    3.6349    2.5625 H       1  UNL1        0.0000
     82 H           0.6139   -3.9907   -1.1523 H       1  UNL1        0.0000
     83 H           1.5892   -3.6356   -2.5625 H       1  UNL1        0.0000
     84 H           1.4660   -5.3056   -1.9782 H       1  UNL1        0.0000
     85 H          -3.9790    0.5897    1.1606 H       1  UNL1        0.0000
     86 H          -3.6336    1.5723    2.5680 H       1  UNL1        0.0000
     87 H          -5.3025    1.4298    1.9849 H       1  UNL1        0.0000
     88 H          -1.6027   -3.6240    2.5765 H       1  UNL1        0.0000
     89 H          -1.4777   -5.2964    1.9994 H       1  UNL1        0.0000
     90 H          -0.6213   -3.9852    1.1721 H       1  UNL1        0.0000
     91 H           3.6321   -5.9303   -1.3656 H       1  UNL1        0.0000
     92 H          -5.9505    3.5875    1.3692 H       1  UNL1        0.0000
     93 H          -3.6480   -5.9156    1.3913 H       1  UNL1        0.0000
     94 H           3.6337    5.9290    1.3655 H       1  UNL1        0.0000
@<TRIPOS>BOND
     1     2    10    1
     2     2    11    1
     3     2    13    1
     4     2     8    1
     5     2     1    1
     6     3     9    1
     7     4    39    1
     8     4    14    1
     9     5    15    1
    10     5     7    1
    11     6    12    1
    12     7     1    1
    13     8     5    1
    14     9     1    1
    15    10     3    1
    16    11     6    1
    17    12     1    1
    18    13     4    1
    19    14     1    1
    20    15    16   ar
    21    16    17    1
    22    17    53    1
    23    17    51    1
    24    18    16   ar
    25    18    54    1
    26    19    18   ar
    27    20    19    1
    28    20    56    1
    29    21    19   ar
    30    22    21   ar
    31    22    15   ar
    32    23     3    1
    33    23    30   ar
    34    24    26   ar
    35    24    23   ar
    36    25    59    1
    37    25    24    1
    38    26    27   ar
    39    27    28    1
    40    27    29   ar
    41    28    63    1
    42    28    62    1
    43    29    30   ar
    44    29    94    1
    45    30    47    1
    46    31     6    1
    47    31    38   ar
    48    32    34   ar
    49    32    31   ar
    50    33    65    1
    51    33    32    1
    52    34    35   ar
    53    35    36    1
    54    35    37   ar
    55    36    70    1
    56    36    71    1
    57    37    38   ar
    58    37    92    1
    59    38    49    1
    60    39    46   ar
    61    40    42   ar
    62    40    39   ar
    63    41    73    1
    64    41    40    1
    65    42    43   ar
    66    43    45   ar
    67    44    43    1
    68    44    77    1
    69    45    46   ar
    70    45    93    1
    71    46    50    1
    72    47    79    1
    73    47    81    1
    74    48    82    1
    75    48    22    1
    76    49    87    1
    77    49    86    1
    78    50    89    1
    79    50    88    1
    80    52    17    1
    81    55    20    1
    82    57    20    1
    83    58    25    1
    84    60    25    1
    85    61    26    1
    86    64    28    1
    87    66    33    1
    88    67    33    1
    89    68    34    1
    90    69    36    1
    91    72    41    1
    92    74    41    1
    93    75    42    1
    94    76    44    1
    95    78    44    1
    96    80    47    1
    97    83    48    1
    98    84    48    1
    99    85    49    1
   100    90    50    1
   101    91    21    1
