@<TRIPOS>MOLECULE
RhRh_EtEtiPr-O2C4_15_sp
 114 117 0 0 0
SMALL
GASTEIGER

@<TRIPOS>ATOM
      1 Rh          0.1670   -0.0333    1.1892 Rh      1  UNL1        0.0000
      2 Rh          0.0819   -0.0400   -1.1849 Rh      1  UNL1        0.0000
      3 C          -0.5501   -2.5915    0.0361 C.3     1  UNL1        0.0000
      4 C           2.6720   -0.7328   -0.1193 C.3     1  UNL1        0.0000
      5 C           0.5916    2.5634   -0.0194 C.3     1  UNL1        0.0000
      6 C          -2.4486    0.5934    0.0896 C.3     1  UNL1        0.0000
      7 O           2.1020   -0.7483    1.0210 O.3     1  UNL1        0.0000
      8 O           2.1141   -0.3379   -1.1965 O.3     1  UNL1        0.0000
      9 O          -0.5204   -1.9722    1.1495 O.3     1  UNL1        0.0000
     10 O          -0.2143   -2.0815   -1.0845 O.3     1  UNL1        0.0000
     11 O           0.7741    1.9453    1.0824 O.3     1  UNL1        0.0000
     12 O           0.3173    1.9952   -1.1268 O.3     1  UNL1        0.0000
     13 O          -1.7901    0.6378    1.1832 O.3     1  UNL1        0.0000
     14 O          -1.9471    0.2509   -1.0306 O.3     1  UNL1        0.0000
     15 C           4.1325   -1.1894   -0.2338 C.3     1  UNL1        0.0000
     16 C           4.5258   -2.1492    0.9204 C.3     1  UNL1        0.0000
     17 C           4.6869   -1.6142    2.3473 C.3     1  UNL1        0.0000
     18 C           5.0038    0.1182   -0.3315 C.3     1  UNL1        0.0000
     19 C           4.6752    1.1949    0.7119 C.3     1  UNL1        0.0000
     20 C           6.5115   -0.1687   -0.3332 C.3     1  UNL1        0.0000
     21 C           4.2781   -1.9570   -1.5815 C.3     1  UNL1        0.0000
     22 C           3.3793   -3.1837   -1.7534 C.3     1  UNL1        0.0000
     23 C          -0.9574   -4.0684    0.0332 C.3     1  UNL1        0.0000
     24 C          -1.5868   -4.4759    1.3855 C.3     1  UNL1        0.0000
     25 C          -2.9469   -3.8762    1.7473 C.3     1  UNL1        0.0000
     26 C          -1.8565   -4.3465   -1.2239 C.3     1  UNL1        0.0000
     27 C          -2.4276   -5.7715   -1.2368 C.3     1  UNL1        0.0000
     28 C          -2.9914   -3.3349   -1.4658 C.3     1  UNL1        0.0000
     29 C           0.3821   -4.8554   -0.1476 C.3     1  UNL1        0.0000
     30 C           1.4267   -4.6534    0.9534 C.3     1  UNL1        0.0000
     31 C           0.7145    4.0940   -0.0290 C.3     1  UNL1        0.0000
     32 C          -0.1506    4.6342   -1.2035 C.3     1  UNL1        0.0000
     33 C          -0.2943    6.1568   -1.2697 C.3     1  UNL1        0.0000
     34 C           2.2294    4.4699   -0.2505 C.3     1  UNL1        0.0000
     35 C           3.0858    4.3497    1.0191 C.3     1  UNL1        0.0000
     36 C           2.8794    3.6960   -1.4088 C.3     1  UNL1        0.0000
     37 C           0.2160    4.6491    1.3276 C.3     1  UNL1        0.0000
     38 C          -1.2625    4.3963    1.6246 C.3     1  UNL1        0.0000
     39 C          -3.9447    0.9343    0.1447 C.3     1  UNL1        0.0000
     40 C          -4.1200    2.1359    1.1157 C.3     1  UNL1        0.0000
     41 C          -5.5598    2.6092    1.3278 C.3     1  UNL1        0.0000
     42 C          -4.6721   -0.3327    0.7023 C.3     1  UNL1        0.0000
     43 C          -4.5029   -0.6161    2.1966 C.3     1  UNL1        0.0000
     44 C          -4.5241    1.2898   -1.2659 C.3     1  UNL1        0.0000
     45 C          -3.8373    2.5034   -1.9129 C.3     1  UNL1        0.0000
     46 C          -4.6030    0.1298   -2.2732 C.3     1  UNL1        0.0000
     47 H           3.7816   -2.9486    0.9452 H       1  UNL1        0.0000
     48 H           5.4649   -2.6297    0.6209 H       1  UNL1        0.0000
     49 H           3.8047   -1.0601    2.6687 H       1  UNL1        0.0000
     50 H           5.5614   -0.9678    2.4532 H       1  UNL1        0.0000
     51 H           4.8270   -2.4571    3.0325 H       1  UNL1        0.0000
     52 H           4.7488    0.5476   -1.3088 H       1  UNL1        0.0000
     53 H           3.6059    1.4027    0.7657 H       1  UNL1        0.0000
     54 H           5.1786    2.1278    0.4419 H       1  UNL1        0.0000
     55 H           5.0056    0.9196    1.7144 H       1  UNL1        0.0000
     56 H           7.0617    0.7632   -0.4986 H       1  UNL1        0.0000
     57 H           6.8059   -0.8667   -1.1205 H       1  UNL1        0.0000
     58 H           6.8450   -0.5788    0.6245 H       1  UNL1        0.0000
     59 H           4.0740   -1.2556   -2.3945 H       1  UNL1        0.0000
     60 H           3.5187   -3.6127   -2.7507 H       1  UNL1        0.0000
     61 H           2.3234   -2.9188   -1.6550 H       1  UNL1        0.0000
     62 H           3.6068   -3.9679   -1.0268 H       1  UNL1        0.0000
     63 H          -1.6532   -5.5699    1.4004 H       1  UNL1        0.0000
     64 H          -0.8820   -4.2010    2.1721 H       1  UNL1        0.0000
     65 H          -3.1758   -4.0802    2.7983 H       1  UNL1        0.0000
     66 H          -3.7616   -4.2934    1.1510 H       1  UNL1        0.0000
     67 H          -2.9444   -2.7936    1.6173 H       1  UNL1        0.0000
     68 H          -1.1798   -4.2523   -2.0806 H       1  UNL1        0.0000
     69 H          -2.9379   -5.9550   -2.1876 H       1  UNL1        0.0000
     70 H          -3.1629   -5.9181   -0.4395 H       1  UNL1        0.0000
     71 H          -1.6561   -6.5381   -1.1272 H       1  UNL1        0.0000
     72 H          -3.4208   -3.5061   -2.4586 H       1  UNL1        0.0000
     73 H          -2.6390   -2.3030   -1.4408 H       1  UNL1        0.0000
     74 H          -3.8026   -3.4410   -0.7429 H       1  UNL1        0.0000
     75 H           0.8118   -4.5678   -1.1116 H       1  UNL1        0.0000
     76 H           2.3539   -5.1693    0.6869 H       1  UNL1        0.0000
     77 H           1.0942   -5.0559    1.9137 H       1  UNL1        0.0000
     78 H           1.6626   -3.5962    1.1024 H       1  UNL1        0.0000
     79 H           0.2616    4.2663   -2.1448 H       1  UNL1        0.0000
     80 H          -1.1467    4.1868   -1.1355 H       1  UNL1        0.0000
     81 H          -0.8907    6.4330   -2.1447 H       1  UNL1        0.0000
     82 H           0.6707    6.6639   -1.3634 H       1  UNL1        0.0000
     83 H          -0.7983    6.5640   -0.3886 H       1  UNL1        0.0000
     84 H           2.2216    5.5299   -0.5308 H       1  UNL1        0.0000
     85 H           4.1407    4.5028    0.7711 H       1  UNL1        0.0000
     86 H           2.9889    3.3636    1.4781 H       1  UNL1        0.0000
     87 H           2.8143    5.0972    1.7676 H       1  UNL1        0.0000
     88 H           3.8865    4.0836   -1.5919 H       1  UNL1        0.0000
     89 H           2.3129    3.7867   -2.3382 H       1  UNL1        0.0000
     90 H           2.9695    2.6296   -1.1857 H       1  UNL1        0.0000
     91 H           0.4259    5.7243    1.3523 H       1  UNL1        0.0000
     92 H          -1.9243    4.8732    0.8954 H       1  UNL1        0.0000
     93 H          -1.5248    4.7913    2.6111 H       1  UNL1        0.0000
     94 H          -1.4774    3.3253    1.6330 H       1  UNL1        0.0000
     95 H          -3.6796    1.8639    2.0759 H       1  UNL1        0.0000
     96 H          -3.5228    2.9739    0.7503 H       1  UNL1        0.0000
     97 H          -6.2191    1.7974    1.6495 H       1  UNL1        0.0000
     98 H          -5.9905    3.0473    0.4231 H       1  UNL1        0.0000
     99 H          -5.5848    3.3793    2.1050 H       1  UNL1        0.0000
    100 H          -5.7385   -0.2221    0.4733 H       1  UNL1        0.0000
    101 H          -4.9725    0.1536    2.8148 H       1  UNL1        0.0000
    102 H          -3.4487   -0.6730    2.4769 H       1  UNL1        0.0000
    103 H          -4.9729   -1.5714    2.4482 H       1  UNL1        0.0000
    104 H          -5.5627    1.5775   -1.0609 H       1  UNL1        0.0000
    105 H          -4.3075    2.7284   -2.8754 H       1  UNL1        0.0000
    106 H          -2.7781    2.3058   -2.0968 H       1  UNL1        0.0000
    107 H          -3.9165    3.4032   -1.2963 H       1  UNL1        0.0000
    108 H          -5.1324   -0.7366   -1.8694 H       1  UNL1        0.0000
    109 H          -3.6114   -0.1937   -2.5897 H       1  UNL1        0.0000
    110 H          -5.1549    0.4620   -3.1589 H       1  UNL1        0.0000
    111 H           5.3236   -2.2653   -1.6796 H       1  UNL1        0.0000
    112 H           0.8034    4.1962    2.1265 H       1  UNL1        0.0000
    113 H          -4.3335   -1.2040    0.1345 H       1  UNL1        0.0000
    114 H           0.1376   -5.9200   -0.2162 H       1  UNL1        0.0000
@<TRIPOS>BOND
     1     2    12    1
     2     2    10    1
     3     2    14    1
     4     2     1    1
     5     3     9    1
     6     4     7    1
     7     5    11    1
     8     6    39    1
     9     6    13    1
    10     7     1    1
    11     8     2    1
    12     8     4    1
    13     9     1    1
    14    10     3    1
    15    11     1    1
    16    12     5    1
    17    13     1    1
    18    14     6    1
    19    15     4    1
    20    15    16    1
    21    16    47    1
    22    16    17    1
    23    17    50    1
    24    17    49    1
    25    17    51    1
    26    18    15    1
    27    18    19    1
    28    19    53    1
    29    19    55    1
    30    20    18    1
    31    20    58    1
    32    21    15    1
    33    22    61    1
    34    22    21    1
    35    22    62    1
    36    23     3    1
    37    23    24    1
    38    24    63    1
    39    24    25    1
    40    24    64    1
    41    25    65    1
    42    26    23    1
    43    27    26    1
    44    27    71    1
    45    27    70    1
    46    28    73    1
    47    28    26    1
    48    28    74    1
    49    29    23    1
    50    29    30    1
    51    30    78    1
    52    30    77    1
    53    31     5    1
    54    31    37    1
    55    32    80    1
    56    32    31    1
    57    33    32    1
    58    33    83    1
    59    34    31    1
    60    34    35    1
    61    35    86    1
    62    35    87    1
    63    36    90    1
    64    36    34    1
    65    37    91    1
    66    37    38    1
    67    37   112    1
    68    38    94    1
    69    38    93    1
    70    39    42    1
    71    39    40    1
    72    40    41    1
    73    40    95    1
    74    41    97    1
    75    41    99    1
    76    42    43    1
    77    43   103    1
    78    43   102    1
    79    43   101    1
    80    44   104    1
    81    44    39    1
    82    45   107    1
    83    45    44    1
    84    46   108    1
    85    46    44    1
    86    48    16    1
    87    52    18    1
    88    54    19    1
    89    56    20    1
    90    57    20    1
    91    59    21    1
    92    60    22    1
    93    66    25    1
    94    67    25    1
    95    68    26    1
    96    69    27    1
    97    72    28    1
    98    75    29    1
    99    76    30    1
   100    79    32    1
   101    81    33    1
   102    82    33    1
   103    84    34    1
   104    85    35    1
   105    88    36    1
   106    89    36    1
   107    92    38    1
   108    96    40    1
   109    98    41    1
   110   100    42    1
   111   105    45    1
   112   106    45    1
   113   109    46    1
   114   110    46    1
   115   111    21    1
   116   113    42    1
   117   114    29    1
