@<TRIPOS>MOLECULE
RhRh_ACyPentyl4_18_sp
 126 141 0 0 0
SMALL
GASTEIGER

@<TRIPOS>ATOM
      1 Rh          0.0798    0.0218    0.3914 Rh      1  UNL1        0.0000
      2 Rh         -0.9693   -0.1033   -1.7541 Rh      1  UNL1        0.0000
      3 C           0.7903   -2.3235   -1.1332 C.3     1  UNL1        0.0000
      4 C          -2.4285   -1.3936    0.3745 C.3     1  UNL1        0.0000
      5 C          -1.6205    2.2593   -0.2345 C.3     1  UNL1        0.0000
      6 C           1.6040    1.2038   -1.7578 C.3     1  UNL1        0.0000
      7 O           1.0670   -1.7216   -0.0501 O.3     1  UNL1        0.0000
      8 O           0.0112   -1.9048   -2.0440 O.3     1  UNL1        0.0000
      9 O           1.6046    1.0678   -0.4935 O.3     1  UNL1        0.0000
     10 O           0.6571    0.8976   -2.5433 O.3     1  UNL1        0.0000
     11 O          -1.8824    1.6970   -1.3406 O.3     1  UNL1        0.0000
     12 O          -0.9390    1.7648    0.7180 O.3     1  UNL1        0.0000
     13 O          -2.5038   -1.1348   -0.8687 O.3     1  UNL1        0.0000
     14 O          -1.4826   -1.0738    1.1550 O.3     1  UNL1        0.0000
     15 N           2.0739   -4.1054   -0.0916 N.am    1  UNL1        0.0000
     16 N           3.9833    1.4830   -1.4468 N.am    1  UNL1        0.0000
     17 N          -1.1862    4.3977    0.7967 N.am    1  UNL1        0.0000
     18 N          -4.8112   -1.8234    0.4294 N.am    1  UNL1        0.0000
     19 C           1.4687   -3.6790   -1.3718 C.3     1  UNL1        0.0000
     20 C           2.4786   -3.6001   -2.5429 C.3     1  UNL1        0.0000
     21 C           2.7192   -5.0660   -2.9459 C.3     1  UNL1        0.0000
     22 C           1.4483   -5.8386   -2.4923 C.3     1  UNL1        0.0000
     23 C           0.5079   -4.7727   -1.8991 C.3     1  UNL1        0.0000
     24 C           1.2444   -4.2715    1.0440 C.2     1  UNL1        0.0000
     25 C           2.1400   -4.3314    2.2256 C.ar    1  UNL1        0.0000
     26 C           1.8414   -4.4981    3.5693 C.ar    1  UNL1        0.0000
     27 C           2.9147   -4.4885    4.4683 C.ar    1  UNL1        0.0000
     28 C           4.2321   -4.3235    4.0205 C.ar    1  UNL1        0.0000
     29 C           4.5188   -4.1608    2.6598 C.ar    1  UNL1        0.0000
     30 C           3.4470   -4.1632    1.7805 C.ar    1  UNL1        0.0000
     31 C           3.4244   -3.9912    0.3001 C.2     1  UNL1        0.0000
     32 C           2.8784    1.7901   -2.3797 C.3     1  UNL1        0.0000
     33 C           3.2083    1.2348   -3.7847 C.3     1  UNL1        0.0000
     34 C           4.2222    2.2447   -4.3531 C.3     1  UNL1        0.0000
     35 C           3.8800    3.6011   -3.6735 C.3     1  UNL1        0.0000
     36 C           2.7297    3.2960   -2.6969 C.3     1  UNL1        0.0000
     37 C           4.2180    0.1260   -1.1153 C.2     1  UNL1        0.0000
     38 C           5.1550    0.1198    0.0331 C.ar    1  UNL1        0.0000
     39 C           5.7317   -0.9432    0.7128 C.ar    1  UNL1        0.0000
     40 C           6.5555   -0.6249    1.7997 C.ar    1  UNL1        0.0000
     41 C           6.7834    0.7055    2.1753 C.ar    1  UNL1        0.0000
     42 C           6.1955    1.7668    1.4753 C.ar    1  UNL1        0.0000
     43 C           5.3799    1.4437    0.4022 C.ar    1  UNL1        0.0000
     44 C           4.6017    2.3326   -0.5102 C.2     1  UNL1        0.0000
     45 C          -2.1986    3.6591    0.0147 C.3     1  UNL1        0.0000
     46 C          -2.5512    4.4442   -1.2624 C.3     1  UNL1        0.0000
     47 C          -3.4926    5.5431   -0.7476 C.3     1  UNL1        0.0000
     48 C          -4.3071    4.8756    0.3936 C.3     1  UNL1        0.0000
     49 C          -3.5751    3.5514    0.7152 C.3     1  UNL1        0.0000
     50 C          -1.2676    4.9397    2.0958 C.2     1  UNL1        0.0000
     51 C           0.1289    5.3252    2.4603 C.ar    1  UNL1        0.0000
     52 C           0.6127    5.8959    3.6264 C.ar    1  UNL1        0.0000
     53 C           1.9943    6.1131    3.7079 C.ar    1  UNL1        0.0000
     54 C           2.8460    5.7616    2.6532 C.ar    1  UNL1        0.0000
     55 C           2.3486    5.1895    1.4750 C.ar    1  UNL1        0.0000
     56 C           0.9774    4.9888    1.4067 C.ar    1  UNL1        0.0000
     57 C           0.1440    4.4017    0.3302 C.2     1  UNL1        0.0000
     58 C          -3.5210   -2.3106    0.9365 C.3     1  UNL1        0.0000
     59 C          -3.5205   -2.3923    2.4877 C.3     1  UNL1        0.0000
     60 C          -2.7841   -3.6967    2.8204 C.3     1  UNL1        0.0000
     61 C          -3.2192   -4.6412    1.6913 C.3     1  UNL1        0.0000
     62 C          -3.1412   -3.7547    0.4433 C.3     1  UNL1        0.0000
     63 C          -5.9458   -2.5846    0.0897 C.2     1  UNL1        0.0000
     64 C          -7.0003   -1.5916   -0.2772 C.ar    1  UNL1        0.0000
     65 C          -8.2929   -1.7945   -0.7322 C.ar    1  UNL1        0.0000
     66 C          -9.0699   -0.6570   -0.9875 C.ar    1  UNL1        0.0000
     67 C          -8.5582    0.6302   -0.7832 C.ar    1  UNL1        0.0000
     68 C          -7.2518    0.8233   -0.3162 C.ar    1  UNL1        0.0000
     69 C          -6.4912   -0.3096   -0.0743 C.ar    1  UNL1        0.0000
     70 C          -5.1005   -0.4484    0.4300 C.2     1  UNL1        0.0000
     71 H           1.9514   -3.0624   -3.3358 H       1  UNL1        0.0000
     72 H           3.3785   -3.0480   -2.2975 H       1  UNL1        0.0000
     73 H           3.6102   -5.4477   -2.4405 H       1  UNL1        0.0000
     74 H           2.8961   -5.1516   -4.0216 H       1  UNL1        0.0000
     75 H           1.7044   -6.5809   -1.7300 H       1  UNL1        0.0000
     76 H           0.9665   -6.3784   -3.3120 H       1  UNL1        0.0000
     77 H          -0.1616   -5.1509   -1.1293 H       1  UNL1        0.0000
     78 H          -0.0997   -4.3070   -2.6787 H       1  UNL1        0.0000
     79 H           0.8164   -4.6240    3.9009 H       1  UNL1        0.0000
     80 H           2.7259   -4.6101    5.5300 H       1  UNL1        0.0000
     81 H           5.0418   -4.3216    4.7434 H       1  UNL1        0.0000
     82 H           5.5344   -4.0365    2.3000 H       1  UNL1        0.0000
     83 H           3.5666    0.2077   -3.7555 H       1  UNL1        0.0000
     84 H           2.2770    1.2486   -4.3555 H       1  UNL1        0.0000
     85 H           4.1658    2.2925   -5.4440 H       1  UNL1        0.0000
     86 H           5.2420    1.9383   -4.1006 H       1  UNL1        0.0000
     87 H           4.7400    3.9905   -3.1224 H       1  UNL1        0.0000
     88 H           3.5856    4.3664   -4.3970 H       1  UNL1        0.0000
     89 H           1.7597    3.3936   -3.1918 H       1  UNL1        0.0000
     90 H           2.7096    3.9236   -1.8144 H       1  UNL1        0.0000
     91 H           6.3607    2.8009    1.7573 H       1  UNL1        0.0000
     92 H          -3.0742    3.7606   -1.9362 H       1  UNL1        0.0000
     93 H          -1.6637    4.8107   -1.7791 H       1  UNL1        0.0000
     94 H          -2.9039    6.3762   -0.3493 H       1  UNL1        0.0000
     95 H          -4.1237    5.9491   -1.5430 H       1  UNL1        0.0000
     96 H          -4.3437    5.5155    1.2770 H       1  UNL1        0.0000
     97 H          -5.3384    4.6767    0.0851 H       1  UNL1        0.0000
     98 H          -3.4889    3.3445    1.7789 H       1  UNL1        0.0000
     99 H          -4.0816    2.6997    0.2584 H       1  UNL1        0.0000
    100 H          -0.0577    6.1521    4.4395 H       1  UNL1        0.0000
    101 H           2.4145    6.5545    4.6063 H       1  UNL1        0.0000
    102 H           3.9134    5.9326    2.7513 H       1  UNL1        0.0000
    103 H           3.0067    4.8973    0.6639 H       1  UNL1        0.0000
    104 H          -4.5632   -2.4628    2.8138 H       1  UNL1        0.0000
    105 H          -3.0801   -1.5014    2.9354 H       1  UNL1        0.0000
    106 H          -1.7023   -3.5413    2.7643 H       1  UNL1        0.0000
    107 H          -3.0293   -4.0688    3.8200 H       1  UNL1        0.0000
    108 H          -4.2515   -4.9743    1.8444 H       1  UNL1        0.0000
    109 H          -2.5779   -5.5219    1.6022 H       1  UNL1        0.0000
    110 H          -2.1085   -3.7319    0.0906 H       1  UNL1        0.0000
    111 H          -3.7752   -4.0819   -0.3770 H       1  UNL1        0.0000
    112 H          -6.8456    1.8150   -0.1483 H       1  UNL1        0.0000
    113 O          -4.3349    0.4195    0.8045 O.2     1  UNL1        0.0000
    114 O          -6.0491   -3.7946    0.1170 O.2     1  UNL1        0.0000
    115 O           0.4880    3.9806   -0.7578 O.2     1  UNL1        0.0000
    116 O          -2.2632    5.0826    2.7767 O.2     1  UNL1        0.0000
    117 O           4.5373    3.5467   -0.4527 O.2     1  UNL1        0.0000
    118 O           3.7008   -0.8218   -1.6708 O.2     1  UNL1        0.0000
    119 O           4.3918   -3.8106   -0.4143 O.2     1  UNL1        0.0000
    120 O           0.0313   -4.3418    1.0324 O.2     1  UNL1        0.0000
    121 H           5.5438   -1.9669    0.4056 H       1  UNL1        0.0000
    122 H           7.0269   -1.4228    2.3653 H       1  UNL1        0.0000
    123 H           7.4257    0.9153    3.0248 H       1  UNL1        0.0000
    124 H          -8.6785   -2.7971   -0.8820 H       1  UNL1        0.0000
    125 H         -10.0870   -0.7731   -1.3481 H       1  UNL1        0.0000
    126 H          -9.1867    1.4909   -0.9882 H       1  UNL1        0.0000
@<TRIPOS>BOND
     1     1    12    1
     2     1    14    1
     3     2    11    1
     4     2    13    1
     5     2     1    1
     6     3     7    1
     7     4    58    1
     8     4    14    1
     9     5    45    1
    10     5    12    1
    11     6     9    1
    12     7     1    1
    13     8     2    1
    14     8     3    1
    15     9     1    1
    16    10     6    1
    17    10     2    1
    18    11     5    1
    19    13     4    1
    20    15    31   am
    21    15    24   am
    22    16    37   am
    23    16    44   am
    24    17    50   am
    25    18    70   am
    26    18    58    1
    27    19     3    1
    28    19    15    1
    29    20    72    1
    30    20    19    1
    31    21    20    1
    32    21    22    1
    33    21    73    1
    34    22    23    1
    35    22    75    1
    36    23    19    1
    37    23    77    1
    38    24    25    1
    39    25    26   ar
    40    26    79    1
    41    26    27   ar
    42    27    80    1
    43    28    27   ar
    44    28    81    1
    45    29    28   ar
    46    30    25   ar
    47    30    29   ar
    48    31    30    1
    49    32     6    1
    50    32    16    1
    51    33    83    1
    52    33    32    1
    53    34    86    1
    54    34    33    1
    55    34    35    1
    56    35    87    1
    57    35    36    1
    58    36    32    1
    59    36    90    1
    60    37    38    1
    61    38    43   ar
    62    38    39   ar
    63    39    40   ar
    64    40    41   ar
    65    40   122    1
    66    41   123    1
    67    42    91    1
    68    42    41   ar
    69    43    42   ar
    70    44   117    2
    71    44    43    1
    72    45    49    1
    73    45    17    1
    74    46    47    1
    75    46    45    1
    76    47    94    1
    77    47    48    1
    78    48    49    1
    79    48    96    1
    80    49    98    1
    81    50    51    1
    82    50   116    2
    83    51    52   ar
    84    52    53   ar
    85    52   100    1
    86    53   101    1
    87    54   102    1
    88    54    53   ar
    89    55    54   ar
    90    56    55   ar
    91    56    51   ar
    92    57    17   am
    93    57    56    1
    94    58    59    1
    95    59   104    1
    96    59    60    1
    97    59   105    1
    98    60   107    1
    99    61   108    1
   100    61    60    1
   101    62    58    1
   102    62    61    1
   103    63   114    2
   104    63    18   am
   105    64    69   ar
   106    64    63    1
   107    65    64   ar
   108    66    67   ar
   109    66    65   ar
   110    67    68   ar
   111    68   112    1
   112    68    69   ar
   113    69    70    1
   114    70   113    2
   115    71    20    1
   116    74    21    1
   117    76    22    1
   118    78    23    1
   119    82    29    1
   120    84    33    1
   121    85    34    1
   122    88    35    1
   123    89    36    1
   124    92    46    1
   125    93    46    1
   126    95    47    1
   127    97    48    1
   128    99    49    1
   129   103    55    1
   130   106    60    1
   131   109    61    1
   132   110    62    1
   133   111    62    1
   134   115    57    2
   135   118    37    2
   136   119    31    2
   137   120    24    2
   138   121    39    1
   139   124    65    1
   140   125    66    1
   141   126    67    1
