@<TRIPOS>MOLECULE
RhRh_S-NTTL4_13_sp
 158 173 0 0 0
SMALL
GASTEIGER

@<TRIPOS>ATOM
      1 Rh          0.0017   -0.0006   -0.2808 Rh      1  UNL1        0.0000
      2 Rh          0.0004   -0.0012   -2.6707 Rh      1  UNL1        0.0000
      3 C          -2.0618   -1.6155   -1.4727 C.3     1  UNL1        0.0000
      4 C           1.6139   -2.0652   -1.4734 C.3     1  UNL1        0.0000
      5 C           2.0654    1.6118   -1.4751 C.3     1  UNL1        0.0000
      6 C          -1.6110    2.0638   -1.4747 C.3     1  UNL1        0.0000
      7 O           1.3224   -1.5618   -0.3421 O.3     1  UNL1        0.0000
      8 O           1.2824   -1.6046   -2.6051 O.3     1  UNL1        0.0000
      9 O          -1.5598   -1.3213   -0.3419 O.3     1  UNL1        0.0000
     10 O          -1.6022   -1.2836   -2.6050 O.3     1  UNL1        0.0000
     11 O          -1.3187    1.5610   -0.3437 O.3     1  UNL1        0.0000
     12 O          -1.2809    1.6024   -2.6068 O.3     1  UNL1        0.0000
     13 O           1.5631    1.3196   -0.3436 O.3     1  UNL1        0.0000
     14 O           1.6038    1.2806   -2.6065 O.3     1  UNL1        0.0000
     15 N           2.0231   -4.1250   -0.2656 N.am    1  UNL1        0.0000
     16 N          -4.1250   -2.0242   -0.2696 N.am    1  UNL1        0.0000
     17 N          -2.0169    4.1246   -0.2667 N.am    1  UNL1        0.0000
     18 N           4.1274    2.0189   -0.2702 N.am    1  UNL1        0.0000
     19 C           2.5071   -3.3037   -1.3991 C.3     1  UNL1        0.0000
     20 C           0.6376   -4.3527   -0.1662 C.2     1  UNL1        0.0000
     21 C           0.1431   -4.9973    1.0658 C.ar    1  UNL1        0.0000
     22 C          -1.2144   -5.2047    1.2286 C.ar    1  UNL1        0.0000
     23 C          -1.7059   -5.8030    2.4065 C.ar    1  UNL1        0.0000
     24 C          -0.8392   -6.2025    3.4018 C.ar    1  UNL1        0.0000
     25 C           0.5603   -6.0034    3.2688 C.ar    1  UNL1        0.0000
     26 C           1.4936   -6.3855    4.2652 C.ar    1  UNL1        0.0000
     27 C           2.8435   -6.1510    4.0979 C.ar    1  UNL1        0.0000
     28 C           3.3178   -5.5163    2.9330 C.ar    1  UNL1        0.0000
     29 C           2.4359   -5.1333    1.9379 C.ar    1  UNL1        0.0000
     30 C           1.0497   -5.3789    2.0831 C.ar    1  UNL1        0.0000
     31 C           2.9487   -4.4302    0.7412 C.2     1  UNL1        0.0000
     32 C           2.8090   -4.0835   -2.7133 C.3     1  UNL1        0.0000
     33 C           3.6620   -5.3143   -2.3518 C.3     1  UNL1        0.0000
     34 C           1.5589   -4.5510   -3.4768 C.3     1  UNL1        0.0000
     35 C           3.6536   -3.1588   -3.6148 C.3     1  UNL1        0.0000
     36 C          -3.2968   -2.5130   -1.3966 C.3     1  UNL1        0.0000
     37 C          -4.3557   -0.6385   -0.1787 C.2     1  UNL1        0.0000
     38 C          -5.0130   -0.1395    1.0448 C.ar    1  UNL1        0.0000
     39 C          -5.2239    1.2184    1.1997 C.ar    1  UNL1        0.0000
     40 C          -5.8374    1.7140    2.3679 C.ar    1  UNL1        0.0000
     41 C          -6.2493    0.8508    3.3611 C.ar    1  UNL1        0.0000
     42 C          -6.0469   -0.5490    3.2363 C.ar    1  UNL1        0.0000
     43 C          -6.4411   -1.4790    4.2311 C.ar    1  UNL1        0.0000
     44 C          -6.2016   -2.8291    4.0728 C.ar    1  UNL1        0.0000
     45 C          -5.5494   -3.3070    2.9192 C.ar    1  UNL1        0.0000
     46 C          -5.1550   -2.4286    1.9254 C.ar    1  UNL1        0.0000
     47 C          -5.4058   -1.0424    2.0611 C.ar    1  UNL1        0.0000
     48 C          -4.4339   -2.9447    0.7409 C.2     1  UNL1        0.0000
     49 C          -4.0717   -2.8254   -2.7109 C.3     1  UNL1        0.0000
     50 C          -3.1399   -3.6666   -3.6084 C.3     1  UNL1        0.0000
     51 C          -5.2975   -3.6856   -2.3490 C.3     1  UNL1        0.0000
     52 C          -4.5461   -1.5805   -3.4785 C.3     1  UNL1        0.0000
     53 C          -2.5022    3.3035   -1.3999 C.3     1  UNL1        0.0000
     54 C          -2.9409    4.4299    0.7414 C.2     1  UNL1        0.0000
     55 C          -2.4275    5.1400    1.9337 C.ar    1  UNL1        0.0000
     56 C          -3.3083    5.5254    2.9288 C.ar    1  UNL1        0.0000
     57 C          -2.8332    6.1677    4.0891 C.ar    1  UNL1        0.0000
     58 C          -1.4836    6.4073    4.2522 C.ar    1  UNL1        0.0000
     59 C          -0.5514    6.0225    3.2558 C.ar    1  UNL1        0.0000
     60 C           0.8479    6.2259    3.3848 C.ar    1  UNL1        0.0000
     61 C           1.7137    5.8228    2.3902 C.ar    1  UNL1        0.0000
     62 C           1.2214    5.2167    1.2167 C.ar    1  UNL1        0.0000
     63 C          -0.1359    5.0053    1.0577 C.ar    1  UNL1        0.0000
     64 C          -1.0417    5.3902    2.0746 C.ar    1  UNL1        0.0000
     65 C          -0.6317    4.3541   -0.1705 C.2     1  UNL1        0.0000
     66 C          -2.8034    4.0840   -2.7136 C.3     1  UNL1        0.0000
     67 C          -3.6548    5.3158   -2.3514 C.3     1  UNL1        0.0000
     68 C          -1.5532    4.5497   -3.4778 C.3     1  UNL1        0.0000
     69 C          -3.6495    3.1608   -3.6153 C.3     1  UNL1        0.0000
     70 C           3.3030    2.5058   -1.4004 C.3     1  UNL1        0.0000
     71 C           4.3548    0.6330   -0.1742 C.2     1  UNL1        0.0000
     72 C           5.0028    0.1358    1.0549 C.ar    1  UNL1        0.0000
     73 C           5.2112   -1.2220    1.2139 C.ar    1  UNL1        0.0000
     74 C           5.8136   -1.7162    2.3885 C.ar    1  UNL1        0.0000
     75 C           6.2162   -0.8516    3.3845 C.ar    1  UNL1        0.0000
     76 C           6.0160    0.5480    3.2556 C.ar    1  UNL1        0.0000
     77 C           6.4006    1.4791    4.2532 C.ar    1  UNL1        0.0000
     78 C           6.1644    2.8292    4.0901 C.ar    1  UNL1        0.0000
     79 C           5.5254    3.3060    2.9287 C.ar    1  UNL1        0.0000
     80 C           5.1402    2.4264    1.9324 C.ar    1  UNL1        0.0000
     81 C           5.3873    1.0401    2.0732 C.ar    1  UNL1        0.0000
     82 C           4.4329    2.9419    0.7393 C.2     1  UNL1        0.0000
     83 C           4.0804    2.8118   -2.7149 C.3     1  UNL1        0.0000
     84 C           4.5490    1.5636   -3.4807 C.3     1  UNL1        0.0000
     85 C           3.1531    3.6559   -3.6142 C.3     1  UNL1        0.0000
     86 C           5.3100    3.6666   -2.3534 C.3     1  UNL1        0.0000
     87 H           3.4673   -2.9168   -1.0534 H       1  UNL1        0.0000
     88 H          -1.9035   -4.8951    0.4549 H       1  UNL1        0.0000
     89 H          -2.7765   -5.9369    2.5127 H       1  UNL1        0.0000
     90 H           1.1277   -6.8655    5.1684 H       1  UNL1        0.0000
     91 H           3.5467   -6.4500    4.8682 H       1  UNL1        0.0000
     92 H           4.3737   -5.3149    2.7943 H       1  UNL1        0.0000
     93 H           4.5646   -5.0328   -1.8031 H       1  UNL1        0.0000
     94 H           3.9609   -5.8327   -3.2680 H       1  UNL1        0.0000
     95 H           3.0996   -6.0245   -1.7379 H       1  UNL1        0.0000
     96 H           0.9007   -3.7156   -3.7148 H       1  UNL1        0.0000
     97 H           0.9836   -5.2786   -2.9015 H       1  UNL1        0.0000
     98 H           1.8727   -5.0287   -4.4116 H       1  UNL1        0.0000
     99 H           3.0845   -2.2858   -3.9347 H       1  UNL1        0.0000
    100 H           3.9763   -3.7093   -4.5043 H       1  UNL1        0.0000
    101 H           4.5503   -2.8088   -3.0918 H       1  UNL1        0.0000
    102 H          -2.9070   -3.4690   -1.0429 H       1  UNL1        0.0000
    103 H          -4.9054    1.9047    0.4271 H       1  UNL1        0.0000
    104 H          -6.9344   -1.1103    5.1260 H       1  UNL1        0.0000
    105 H          -6.5101   -3.5296    4.8418 H       1  UNL1        0.0000
    106 H          -5.3431   -4.3630    2.7883 H       1  UNL1        0.0000
    107 H          -2.2723   -3.0914   -3.9321 H       1  UNL1        0.0000
    108 H          -3.6882   -3.9993   -4.4956 H       1  UNL1        0.0000
    109 H          -2.7809   -4.5569   -3.0808 H       1  UNL1        0.0000
    110 H          -5.0107   -4.5862   -1.7998 H       1  UNL1        0.0000
    111 H          -5.8137   -3.9880   -3.2652 H       1  UNL1        0.0000
    112 H          -6.0113   -3.1273   -1.7355 H       1  UNL1        0.0000
    113 H          -5.0212   -1.8995   -4.4129 H       1  UNL1        0.0000
    114 H          -3.7144   -0.9179   -3.7172 H       1  UNL1        0.0000
    115 H          -5.2781   -1.0082   -2.9057 H       1  UNL1        0.0000
    116 H          -3.4626    2.9179   -1.0535 H       1  UNL1        0.0000
    117 H          -4.3638    5.3197    2.7939 H       1  UNL1        0.0000
    118 H          -3.5354    6.4687    4.8595 H       1  UNL1        0.0000
    119 H          -1.1173    6.8933    5.1520 H       1  UNL1        0.0000
    120 H           1.9093    4.9039    0.4432 H       1  UNL1        0.0000
    121 H          -4.5576    5.0352   -1.8025 H       1  UNL1        0.0000
    122 H          -3.9534    5.8348   -3.2674 H       1  UNL1        0.0000
    123 H          -3.0915    6.0252   -1.7374 H       1  UNL1        0.0000
    124 H          -1.8669    5.0274   -4.4127 H       1  UNL1        0.0000
    125 H          -0.8962    3.7133   -3.7159 H       1  UNL1        0.0000
    126 H          -0.9766    5.2770   -2.9034 H       1  UNL1        0.0000
    127 H          -4.5460    2.8104   -3.0921 H       1  UNL1        0.0000
    128 H          -3.0811    2.2877   -3.9364 H       1  UNL1        0.0000
    129 H          -3.9726    3.7123   -4.5040 H       1  UNL1        0.0000
    130 H           2.9156    3.4645   -1.0509 H       1  UNL1        0.0000
    131 H           4.8992   -1.9092    0.4396 H       1  UNL1        0.0000
    132 H           5.9486   -2.7870    2.4914 H       1  UNL1        0.0000
    133 H           6.6867   -1.2306    4.2874 H       1  UNL1        0.0000
    134 H           5.3224    4.3621    2.7936 H       1  UNL1        0.0000
    135 H           3.7144    0.9041   -3.7179 H       1  UNL1        0.0000
    136 H           5.2789    0.9891   -2.9075 H       1  UNL1        0.0000
    137 H           5.0246    1.8793   -4.4160 H       1  UNL1        0.0000
    138 H           2.2819    3.0849   -3.9356 H       1  UNL1        0.0000
    139 H           3.7028    3.9827   -4.5027 H       1  UNL1        0.0000
    140 H           2.7999    4.5500   -3.0889 H       1  UNL1        0.0000
    141 H           5.0271    4.5688   -1.8047 H       1  UNL1        0.0000
    142 H           5.8280    3.9663   -3.2696 H       1  UNL1        0.0000
    143 H           6.0209    3.1054   -1.7393 H       1  UNL1        0.0000
    144 O          -0.1095   -4.0091   -1.0725 O.2     1  UNL1        0.0000
    145 O           4.1335   -4.1275    0.6282 O.2     1  UNL1        0.0000
    146 O           4.1260    4.1260    0.6318 O.2     1  UNL1        0.0000
    147 O           4.0079   -0.1123   -1.0807 O.2     1  UNL1        0.0000
    148 O          -4.1220   -4.1281    0.6397 O.2     1  UNL1        0.0000
    149 O          -4.0045    0.1053   -1.0848 O.2     1  UNL1        0.0000
    150 O          -4.1251    4.1237    0.6320 O.2     1  UNL1        0.0000
    151 O           0.1146    4.0074   -1.0763 O.2     1  UNL1        0.0000
    152 H           1.2255    6.6992    4.2869 H       1  UNL1        0.0000
    153 H           6.8840    1.1113    5.1538 H       1  UNL1        0.0000
    154 H           2.7842    5.9603    2.4935 H       1  UNL1        0.0000
    155 H           6.4654    3.5306    4.8613 H       1  UNL1        0.0000
    156 H          -1.2163   -6.6695    4.3073 H       1  UNL1        0.0000
    157 H          -6.7287    1.2308    4.2589 H       1  UNL1        0.0000
    158 H          -5.9733    2.7850    2.4680 H       1  UNL1        0.0000
@<TRIPOS>BOND
     1     2    12    1
     2     2    14    1
     3     2     8    1
     4     2    10    1
     5     2     1    1
     6     3    36    1
     7     3     9    1
     8     4    19    1
     9     4     7    1
    10     5    70    1
    11     5    13    1
    12     6    53    1
    13     6    11    1
    14     7     1    1
    15     8     4    1
    16     9     1    1
    17    10     3    1
    18    11     1    1
    19    12     6    1
    20    13     1    1
    21    14     5    1
    22    15    20   am
    23    15    31   am
    24    16    37   am
    25    16    48   am
    26    17    65   am
    27    17    54   am
    28    18    71   am
    29    18    82   am
    30    19    87    1
    31    19    15    1
    32    20    21    1
    33    21    22   ar
    34    21    30   ar
    35    22    23   ar
    36    23    89    1
    37    23    24   ar
    38    24   156    1
    39    25    24   ar
    40    25    26   ar
    41    26    90    1
    42    27    26   ar
    43    27    91    1
    44    28    27   ar
    45    29    30   ar
    46    29    28   ar
    47    30    25   ar
    48    31    29    1
    49    32    33    1
    50    32    19    1
    51    33    93    1
    52    33    95    1
    53    34    97    1
    54    34    32    1
    55    35   101    1
    56    35    32    1
    57    36   102    1
    58    36    16    1
    59    37    38    1
    60    38    39   ar
    61    38    47   ar
    62    39    40   ar
    63    40   158    1
    64    40    41   ar
    65    41   157    1
    66    42    41   ar
    67    42    43   ar
    68    43   104    1
    69    44    43   ar
    70    44   105    1
    71    45    44   ar
    72    46    47   ar
    73    46    45   ar
    74    47    42   ar
    75    48    46    1
    76    49    51    1
    77    49    36    1
    78    50   109    1
    79    50    49    1
    80    51   110    1
    81    51   112    1
    82    52   115    1
    83    52    49    1
    84    53   116    1
    85    53    17    1
    86    54    55    1
    87    55    64   ar
    88    55    56   ar
    89    56    57   ar
    90    57    58   ar
    91    57   118    1
    92    58   119    1
    93    59    60   ar
    94    59    58   ar
    95    60   152    1
    96    61   154    1
    97    61    60   ar
    98    62    61   ar
    99    63    62   ar
   100    63    64   ar
   101    64    59   ar
   102    65    63    1
   103    66    67    1
   104    66    53    1
   105    67   121    1
   106    67   123    1
   107    68   126    1
   108    68    66    1
   109    69   127    1
   110    69    66    1
   111    70   130    1
   112    70    18    1
   113    71    72    1
   114    72    73   ar
   115    72    81   ar
   116    73    74   ar
   117    74   132    1
   118    74    75   ar
   119    75   133    1
   120    76    75   ar
   121    76    77   ar
   122    77   153    1
   123    78    77   ar
   124    78   155    1
   125    79    78   ar
   126    80    81   ar
   127    80    79   ar
   128    81    76   ar
   129    82    80    1
   130    83    86    1
   131    83    70    1
   132    84   136    1
   133    84    83    1
   134    85   140    1
   135    85    83    1
   136    86   141    1
   137    86   143    1
   138    88    22    1
   139    92    28    1
   140    94    33    1
   141    96    34    1
   142    98    34    1
   143    99    35    1
   144   100    35    1
   145   103    39    1
   146   106    45    1
   147   107    50    1
   148   108    50    1
   149   111    51    1
   150   113    52    1
   151   114    52    1
   152   117    56    1
   153   120    62    1
   154   122    67    1
   155   124    68    1
   156   125    68    1
   157   128    69    1
   158   129    69    1
   159   131    73    1
   160   134    79    1
   161   135    84    1
   162   137    84    1
   163   138    85    1
   164   139    85    1
   165   142    86    1
   166   144    20    2
   167   145    31    2
   168   146    82    2
   169   147    71    2
   170   148    48    2
   171   149    37    2
   172   150    54    2
   173   151    65    2
