@<TRIPOS>MOLECULE
RhRh_cis-Cy-fused-Hback-S-PTV4_10_sp
 146 157 0 0 0
SMALL
GASTEIGER

@<TRIPOS>ATOM
      1 Rh         -0.1724   -0.0343    0.2381 Rh      1  UNL1        0.0000
      2 Rh         -0.0941   -0.0968   -2.1532 Rh      1  UNL1        0.0000
      3 C           2.2845    0.9352   -0.9121 C.3     1  UNL1        0.0000
      4 C          -2.5694   -1.0186   -1.0157 C.3     1  UNL1        0.0000
      5 C          -1.0978    2.3673   -1.0534 C.3     1  UNL1        0.0000
      6 C           0.8288   -2.4959   -0.8487 C.3     1  UNL1        0.0000
      7 O           0.5875   -1.9251    0.2629 O.3     1  UNL1        0.0000
      8 O           0.7133   -1.9806   -1.9988 O.3     1  UNL1        0.0000
      9 O           1.7119    0.7482    0.2092 O.3     1  UNL1        0.0000
     10 O           1.7884    0.7172   -2.0543 O.3     1  UNL1        0.0000
     11 O          -0.9300    1.8531    0.0988 O.3     1  UNL1        0.0000
     12 O          -0.8983    1.7989   -2.1646 O.3     1  UNL1        0.0000
     13 O          -2.0589   -0.7959    0.1299 O.3     1  UNL1        0.0000
     14 O          -1.9899   -0.8895   -2.1315 O.3     1  UNL1        0.0000
     15 N           0.3824   -4.6319    0.1711 N.am    1  UNL1        0.0000
     16 N           4.3900    0.7618    0.2374 N.am    1  UNL1        0.0000
     17 N          -0.7805    4.5013   -0.0130 N.am    1  UNL1        0.0000
     18 N          -4.7240   -0.6414   -0.0169 N.am    1  UNL1        0.0000
     19 C          -1.0044   -4.5177    0.0990 C.2     1  UNL1        0.0000
     20 C           0.8149   -5.2445    1.3508 C.2     1  UNL1        0.0000
     21 C           5.0685    1.3973    1.2754 C.2     1  UNL1        0.0000
     22 C           4.3154   -0.6203    0.3949 C.2     1  UNL1        0.0000
     23 C           0.6109    4.4823    0.0027 C.2     1  UNL1        0.0000
     24 C          -1.3342    5.0045    1.1628 C.2     1  UNL1        0.0000
     25 C          -4.6215    0.7507    0.0024 C.2     1  UNL1        0.0000
     26 C          -5.2841   -1.1548    1.1547 C.2     1  UNL1        0.0000
     27 C           1.3256   -3.9330   -0.7072 C.3     1  UNL1        0.0000
     28 C           1.6668   -4.7101   -1.9920 C.3     1  UNL1        0.0000
     29 C           0.4787   -4.9479   -2.9303 C.3     1  UNL1        0.0000
     30 C           2.8469   -4.0473   -2.7183 C.3     1  UNL1        0.0000
     31 C           3.6886    1.5186   -0.7996 C.3     1  UNL1        0.0000
     32 C           4.5161    1.6847   -2.0892 C.3     1  UNL1        0.0000
     33 C           3.8656    2.7152   -3.0233 C.3     1  UNL1        0.0000
     34 C           4.8285    0.3706   -2.8127 C.3     1  UNL1        0.0000
     35 C          -1.5828    3.8158   -1.0249 C.3     1  UNL1        0.0000
     36 C          -1.6106    4.5232   -2.3921 C.3     1  UNL1        0.0000
     37 C          -2.7665    3.9660   -3.2348 C.3     1  UNL1        0.0000
     38 C          -1.7563    6.0389   -2.2139 C.3     1  UNL1        0.0000
     39 C          -4.0123   -1.5108   -0.9580 C.3     1  UNL1        0.0000
     40 C          -4.7566   -1.7379   -2.2873 C.3     1  UNL1        0.0000
     41 C          -4.9292   -0.4842   -3.1520 C.3     1  UNL1        0.0000
     42 C          -4.1052   -2.8856   -3.0736 C.3     1  UNL1        0.0000
     43 C          -4.8790   -0.0244    3.3562 C.3     1  UNL1        0.0000
     44 C          -5.6974    0.0098    2.0464 C.3     1  UNL1        0.0000
     45 C          -5.4072    1.2722    1.1983 C.3     1  UNL1        0.0000
     46 C          -4.6565    2.3733    1.9585 C.3     1  UNL1        0.0000
     47 C          -3.3381    1.8693    2.5731 C.3     1  UNL1        0.0000
     48 C          -3.4316    0.4165    3.1058 C.3     1  UNL1        0.0000
     49 C           2.2230    4.5378    1.9789 C.3     1  UNL1        0.0000
     50 C          -0.1998    4.5877    3.3634 C.3     1  UNL1        0.0000
     51 C           0.3269    3.1770    3.0754 C.3     1  UNL1        0.0000
     52 C           1.7949    3.1848    2.5795 C.3     1  UNL1        0.0000
     53 C          -0.1970    5.4445    2.0784 C.3     1  UNL1        0.0000
     54 C           1.0855    5.2465    1.2315 C.3     1  UNL1        0.0000
     55 C           7.6615   -0.2328    0.7318 C.3     1  UNL1        0.0000
     56 C           7.2004    0.3322    2.0807 C.3     1  UNL1        0.0000
     57 C           6.0526   -2.1187    1.4561 C.3     1  UNL1        0.0000
     58 C           7.1802   -1.6916    0.4987 C.3     1  UNL1        0.0000
     59 C           5.6608    0.3275    2.1851 C.3     1  UNL1        0.0000
     60 C           5.0337   -0.9955    1.6837 C.3     1  UNL1        0.0000
     61 C          -2.2189   -3.2266    2.5987 C.3     1  UNL1        0.0000
     62 C          -2.7306   -4.5298    1.9596 C.3     1  UNL1        0.0000
     63 C          -0.4294   -4.8347    3.4848 C.3     1  UNL1        0.0000
     64 C          -0.8061   -3.3707    3.2229 C.3     1  UNL1        0.0000
     65 C          -0.4099   -5.6405    2.1665 C.3     1  UNL1        0.0000
     66 C          -1.6129   -5.3065    1.2514 C.3     1  UNL1        0.0000
     67 H           2.2431   -3.8553   -0.1143 H       1  UNL1        0.0000
     68 H           0.8043   -5.5416   -3.7906 H       1  UNL1        0.0000
     69 H           0.0725   -4.0025   -3.2938 H       1  UNL1        0.0000
     70 H          -0.3297   -5.4906   -2.4350 H       1  UNL1        0.0000
     71 H           3.6770   -3.8466   -2.0335 H       1  UNL1        0.0000
     72 H           2.5466   -3.0967   -3.1631 H       1  UNL1        0.0000
     73 H           3.2104   -4.7027   -3.5156 H       1  UNL1        0.0000
     74 H           3.5412    2.5158   -0.3719 H       1  UNL1        0.0000
     75 H           2.9523    2.3160   -3.4680 H       1  UNL1        0.0000
     76 H           4.5588    2.9757   -3.8290 H       1  UNL1        0.0000
     77 H           3.6015    3.6306   -2.4855 H       1  UNL1        0.0000
     78 H           3.9111   -0.1250   -3.1362 H       1  UNL1        0.0000
     79 H           5.3773   -0.3263   -2.1747 H       1  UNL1        0.0000
     80 H           5.4436    0.5745   -3.6950 H       1  UNL1        0.0000
     81 H          -2.5965    3.7870   -0.6106 H       1  UNL1        0.0000
     82 H          -2.7637    4.4238   -4.2287 H       1  UNL1        0.0000
     83 H          -3.7292    4.1923   -2.7620 H       1  UNL1        0.0000
     84 H          -2.6934    2.8843   -3.3523 H       1  UNL1        0.0000
     85 H          -0.8890    6.4786   -1.7140 H       1  UNL1        0.0000
     86 H          -2.6458    6.2804   -1.6209 H       1  UNL1        0.0000
     87 H          -1.8602    6.5231   -3.1893 H       1  UNL1        0.0000
     88 H          -3.9528   -2.4766   -0.4463 H       1  UNL1        0.0000
     89 H          -3.9602   -0.0807   -3.4516 H       1  UNL1        0.0000
     90 H          -5.4714    0.3047   -2.6268 H       1  UNL1        0.0000
     91 H          -5.4936   -0.7388   -4.0550 H       1  UNL1        0.0000
     92 H          -3.9517   -3.7668   -2.4434 H       1  UNL1        0.0000
     93 H          -3.1315   -2.5858   -3.4653 H       1  UNL1        0.0000
     94 H          -4.7446   -3.1702   -3.9149 H       1  UNL1        0.0000
     95 H           2.0102   -5.6871   -1.6248 H       1  UNL1        0.0000
     96 H           5.4645    2.1130   -1.7361 H       1  UNL1        0.0000
     97 H          -0.6630    4.3113   -2.8976 H       1  UNL1        0.0000
     98 H          -5.7547   -2.0749   -1.9753 H       1  UNL1        0.0000
     99 H          -6.7608   -0.1029    2.2774 H       1  UNL1        0.0000
    100 H          -2.8493    0.3097    4.0272 H       1  UNL1        0.0000
    101 H          -4.9178   -1.0400    3.7616 H       1  UNL1        0.0000
    102 H          -4.4540    3.2167    1.2950 H       1  UNL1        0.0000
    103 H          -5.3251    2.7440    2.7435 H       1  UNL1        0.0000
    104 H          -3.0499    2.5555    3.3757 H       1  UNL1        0.0000
    105 H          -2.5520    1.9272    1.8178 H       1  UNL1        0.0000
    106 H          -2.9803   -0.2668    2.3794 H       1  UNL1        0.0000
    107 H          -5.3564    0.6355    4.0893 H       1  UNL1        0.0000
    108 H          -6.3397    1.6839    0.7933 H       1  UNL1        0.0000
    109 H           1.9219    2.3976    1.8335 H       1  UNL1        0.0000
    110 H           2.5575    5.2132    2.7742 H       1  UNL1        0.0000
    111 H           0.4225    5.0794    4.1197 H       1  UNL1        0.0000
    112 H          -1.2209    4.5563    3.7554 H       1  UNL1        0.0000
    113 H          -0.3118    2.7151    2.3154 H       1  UNL1        0.0000
    114 H           0.2320    2.5558    3.9723 H       1  UNL1        0.0000
    115 H           2.4769    2.9486    3.4033 H       1  UNL1        0.0000
    116 H           3.0778    4.3971    1.3129 H       1  UNL1        0.0000
    117 H          -0.3651    6.4937    2.3388 H       1  UNL1        0.0000
    118 H           1.4497    6.2127    0.8614 H       1  UNL1        0.0000
    119 H           7.6120   -0.2656    2.9015 H       1  UNL1        0.0000
    120 H           7.5591    1.3566    2.2179 H       1  UNL1        0.0000
    121 H           6.8310   -1.7982   -0.5338 H       1  UNL1        0.0000
    122 H           8.7520   -0.1773    0.6631 H       1  UNL1        0.0000
    123 H           5.5335   -2.9974    1.0638 H       1  UNL1        0.0000
    124 H           6.4674   -2.4028    2.4292 H       1  UNL1        0.0000
    125 H           8.0162   -2.3892    0.6107 H       1  UNL1        0.0000
    126 H           7.2784    0.4143   -0.0662 H       1  UNL1        0.0000
    127 H           5.3627    0.5660    3.2099 H       1  UNL1        0.0000
    128 H           4.2547   -1.3431    2.3719 H       1  UNL1        0.0000
    129 H          -3.1560   -5.1884    2.7251 H       1  UNL1        0.0000
    130 H          -3.5375   -4.3062    1.2586 H       1  UNL1        0.0000
    131 H          -0.0627   -2.9315    2.5474 H       1  UNL1        0.0000
    132 H          -2.9434   -2.9076    3.3543 H       1  UNL1        0.0000
    133 H           0.5568   -4.9115    3.9519 H       1  UNL1        0.0000
    134 H          -1.1496   -5.2951    4.1704 H       1  UNL1        0.0000
    135 H          -0.7436   -2.8022    4.1566 H       1  UNL1        0.0000
    136 H          -2.1987   -2.4437    1.8379 H       1  UNL1        0.0000
    137 H          -0.3380   -6.7086    2.3910 H       1  UNL1        0.0000
    138 H          -2.0278   -6.2215    0.8118 H       1  UNL1        0.0000
    139 O           1.2937    3.9371   -0.8457 O.2     1  UNL1        0.0000
    140 O          -2.5256    5.0367    1.4004 O.2     1  UNL1        0.0000
    141 O           5.1739    2.6030    1.3862 O.2     1  UNL1        0.0000
    142 O           3.7556   -1.3754   -0.3773 O.2     1  UNL1        0.0000
    143 O           1.9814   -5.3715    1.6622 O.2     1  UNL1        0.0000
    144 O          -1.6000   -3.8800   -0.7497 O.2     1  UNL1        0.0000
    145 O          -3.9961    1.4057   -0.8100 O.2     1  UNL1        0.0000
    146 O          -5.3657   -2.3404    1.4093 O.2     1  UNL1        0.0000
@<TRIPOS>BOND
     1     1     7    1
     2     2    14    1
     3     2    10    1
     4     2     8    1
     5     2     1    1
     6     3    31    1
     7     3     9    1
     8     4    39    1
     9     4    13    1
    10     5    35    1
    11     5    11    1
    12     6    27    1
    13     6     7    1
    14     8     6    1
    15     9     1    1
    16    10     3    1
    17    11     1    1
    18    12     2    1
    19    12     5    1
    20    13     1    1
    21    14     4    1
    22    15    20   am
    23    16    22   am
    24    16    21   am
    25    17    23   am
    26    17    24   am
    27    18    25   am
    28    18    26   am
    29    19    15   am
    30    19    66    1
    31    20   143    2
    32    20    65    1
    33    21   141    2
    34    21    59    1
    35    22    60    1
    36    23    54    1
    37    24   140    2
    38    24    53    1
    39    25    45    1
    40    26   146    2
    41    26    44    1
    42    27    67    1
    43    27    15    1
    44    28    95    1
    45    28    27    1
    46    29    70    1
    47    29    28    1
    48    30    71    1
    49    30    28    1
    50    31    74    1
    51    31    16    1
    52    32    96    1
    53    32    31    1
    54    33    77    1
    55    33    32    1
    56    34    79    1
    57    34    32    1
    58    35    81    1
    59    35    17    1
    60    36    38    1
    61    36    35    1
    62    37    83    1
    63    37    36    1
    64    38    85    1
    65    38    86    1
    66    39    88    1
    67    39    18    1
    68    40    98    1
    69    40    39    1
    70    41    90    1
    71    41    40    1
    72    42    92    1
    73    42    40    1
    74    43   101    1
    75    43   107    1
    76    44    99    1
    77    44    43    1
    78    45   108    1
    79    45    46    1
    80    45    44    1
    81    46    47    1
    82    46   103    1
    83    47    48    1
    84    47   104    1
    85    48    43    1
    86    48   100    1
    87    49    52    1
    88    49   110    1
    89    50   112    1
    90    50   111    1
    91    51    50    1
    92    51   114    1
    93    52    51    1
    94    52   115    1
    95    53   117    1
    96    53    50    1
    97    54   118    1
    98    54    49    1
    99    54    53    1
   100    55    56    1
   101    56    59    1
   102    56   120    1
   103    56   119    1
   104    57    60    1
   105    57   124    1
   106    58   125    1
   107    58    55    1
   108    58    57    1
   109    59   127    1
   110    60    59    1
   111    60   128    1
   112    61    64    1
   113    61   132    1
   114    62    61    1
   115    62   129    1
   116    63   133    1
   117    63   134    1
   118    64    63    1
   119    64   135    1
   120    65   137    1
   121    65    63    1
   122    66   138    1
   123    66    62    1
   124    66    65    1
   125    68    29    1
   126    69    29    1
   127    72    30    1
   128    73    30    1
   129    75    33    1
   130    76    33    1
   131    78    34    1
   132    80    34    1
   133    82    37    1
   134    84    37    1
   135    87    38    1
   136    89    41    1
   137    91    41    1
   138    93    42    1
   139    94    42    1
   140    97    36    1
   141   102    46    1
   142   105    47    1
   143   106    48    1
   144   109    52    1
   145   113    51    1
   146   116    49    1
   147   121    58    1
   148   122    55    1
   149   123    57    1
   150   126    55    1
   151   130    62    1
   152   131    64    1
   153   136    61    1
   154   139    23    2
   155   142    22    2
   156   144    19    2
   157   145    25    2
