@<TRIPOS>MOLECULE
RhRh_anthracenyl-O2C4_D2_sp
 106 121 0 0 0
SMALL
GASTEIGER

@<TRIPOS>ATOM
      1 Rh          0.2308   -0.0425   -1.1965 Rh      1  UNL1        0.0000
      2 Rh          0.2309    0.0425    1.1966 Rh      1  UNL1        0.0000
      3 C          -1.7168    1.7772   -0.0833 C.3     1  UNL1        0.0000
      4 C          -1.7166   -1.7775    0.0835 C.3     1  UNL1        0.0000
      5 C           2.0509   -1.8978    0.0686 C.3     1  UNL1        0.0000
      6 C           2.0507    1.8979   -0.0687 C.3     1  UNL1        0.0000
      7 O           1.6238    1.5475    1.0780 O.3     1  UNL1        0.0000
      8 O           1.7150    1.3804   -1.1823 O.3     1  UNL1        0.0000
      9 O          -1.3067    1.4117    1.0677 O.3     1  UNL1        0.0000
     10 O          -1.1969    1.4399   -1.1958 O.3     1  UNL1        0.0000
     11 O          -1.3065   -1.4120   -1.0675 O.3     1  UNL1        0.0000
     12 O          -1.1967   -1.4402    1.1961 O.3     1  UNL1        0.0000
     13 O           1.6239   -1.5475   -1.0780 O.3     1  UNL1        0.0000
     14 O           1.7154   -1.3802    1.1823 O.3     1  UNL1        0.0000
     15 C           3.0185    3.0335   -0.1115 C.ar    1  UNL1        0.0000
     16 C           2.5705    4.2820   -0.5823 C.ar    1  UNL1        0.0000
     17 C           3.4938    5.3903   -0.5906 C.ar    1  UNL1        0.0000
     18 C           4.8149    5.1849   -0.1799 C.ar    1  UNL1        0.0000
     19 C           5.2646    3.9388    0.2680 C.ar    1  UNL1        0.0000
     20 C           6.6185    3.7236    0.6700 C.ar    1  UNL1        0.0000
     21 C           6.1186    1.4093    1.1812 C.ar    1  UNL1        0.0000
     22 C           7.0368    2.4955    1.1064 C.ar    1  UNL1        0.0000
     23 C           4.8095    1.5753    0.8153 C.ar    1  UNL1        0.0000
     24 C           4.3384    2.8347    0.3316 C.ar    1  UNL1        0.0000
     25 C          -2.9333    2.6377   -0.1182 C.ar    1  UNL1        0.0000
     26 C          -4.1100    2.1206   -0.7026 C.ar    1  UNL1        0.0000
     27 C          -5.3221    2.8988   -0.6097 C.ar    1  UNL1        0.0000
     28 C          -5.2825    4.1658   -0.0200 C.ar    1  UNL1        0.0000
     29 C          -4.1040    4.7014    0.5081 C.ar    1  UNL1        0.0000
     30 C          -4.0615    6.0108    1.0772 C.ar    1  UNL1        0.0000
     31 C          -2.8984    6.5173    1.5903 C.ar    1  UNL1        0.0000
     32 C          -1.7088    5.7353    1.5729 C.ar    1  UNL1        0.0000
     33 C          -1.7091    4.4702    1.0487 C.ar    1  UNL1        0.0000
     34 C          -2.8987    3.9096    0.4878 C.ar    1  UNL1        0.0000
     35 C          -2.9333   -2.6378    0.1185 C.ar    1  UNL1        0.0000
     36 C          -2.8990   -3.9095   -0.4880 C.ar    1  UNL1        0.0000
     37 C          -4.1044   -4.7011   -0.5085 C.ar    1  UNL1        0.0000
     38 C          -5.2828   -4.1653    0.0198 C.ar    1  UNL1        0.0000
     39 C          -5.3221   -2.8985    0.6099 C.ar    1  UNL1        0.0000
     40 C          -6.5384   -2.3487    1.1192 C.ar    1  UNL1        0.0000
     41 C          -5.3633   -0.3532    1.8150 C.ar    1  UNL1        0.0000
     42 C          -6.5626   -1.1088    1.6974 C.ar    1  UNL1        0.0000
     43 C          -4.1759   -0.8408    1.3393 C.ar    1  UNL1        0.0000
     44 C          -4.1098   -2.1206    0.7030 C.ar    1  UNL1        0.0000
     45 C           3.0187   -3.0334    0.1115 C.ar    1  UNL1        0.0000
     46 C           2.5704   -4.2819    0.5822 C.ar    1  UNL1        0.0000
     47 C           3.4936   -5.3904    0.5906 C.ar    1  UNL1        0.0000
     48 C           4.8148   -5.1852    0.1799 C.ar    1  UNL1        0.0000
     49 C           5.2647   -3.9391   -0.2680 C.ar    1  UNL1        0.0000
     50 C           6.6185   -3.7241   -0.6699 C.ar    1  UNL1        0.0000
     51 C           7.0370   -2.4961   -1.1063 C.ar    1  UNL1        0.0000
     52 C           6.1190   -1.4098   -1.1812 C.ar    1  UNL1        0.0000
     53 C           4.8099   -1.5756   -0.8154 C.ar    1  UNL1        0.0000
     54 C           4.3386   -2.8349   -0.3316 C.ar    1  UNL1        0.0000
     55 C          -5.3638    0.3531   -1.8140 C.ar    1  UNL1        0.0000
     56 C           1.2279   -4.5082    1.0186 C.ar    1  UNL1        0.0000
     57 C           3.0260   -6.6709    1.0174 C.ar    1  UNL1        0.0000
     58 C           1.7261   -6.8525    1.4056 C.ar    1  UNL1        0.0000
     59 C           0.8176   -5.7558    1.4062 C.ar    1  UNL1        0.0000
     60 C          -1.7095   -4.4702   -1.0491 C.ar    1  UNL1        0.0000
     61 C          -4.0623   -6.0102   -1.0782 C.ar    1  UNL1        0.0000
     62 C          -1.7095   -5.7350   -1.5739 C.ar    1  UNL1        0.0000
     63 C          -2.8992   -6.5167   -1.5916 C.ar    1  UNL1        0.0000
     64 C           3.0264    6.6710   -1.0174 C.ar    1  UNL1        0.0000
     65 C           1.7265    6.8526   -1.4057 C.ar    1  UNL1        0.0000
     66 C           0.8179    5.7562   -1.4063 C.ar    1  UNL1        0.0000
     67 C           1.2280    4.5085   -1.0187 C.ar    1  UNL1        0.0000
     68 C          -6.5629    1.1090   -1.6967 C.ar    1  UNL1        0.0000
     69 C          -4.1763    0.8406   -1.3385 C.ar    1  UNL1        0.0000
     70 C          -6.5385    2.3491   -1.1188 C.ar    1  UNL1        0.0000
     71 H           5.5117    6.0189   -0.2071 H       1  UNL1        0.0000
     72 H           7.3106    4.5592    0.6169 H       1  UNL1        0.0000
     73 H           6.4592    0.4399    1.5298 H       1  UNL1        0.0000
     74 H           8.0697    2.3438    1.4035 H       1  UNL1        0.0000
     75 H           4.1163    0.7468    0.8994 H       1  UNL1        0.0000
     76 H          -6.1963    4.7530    0.0282 H       1  UNL1        0.0000
     77 H          -4.9755    6.5979    1.0868 H       1  UNL1        0.0000
     78 H          -2.8764    7.5164    2.0140 H       1  UNL1        0.0000
     79 H          -0.7901    6.1474    1.9777 H       1  UNL1        0.0000
     80 H          -0.7973    3.8862    1.0528 H       1  UNL1        0.0000
     81 H          -6.1967   -4.7523   -0.0287 H       1  UNL1        0.0000
     82 H          -7.4455   -2.9401    1.0327 H       1  UNL1        0.0000
     83 H          -5.3917    0.6298    2.2737 H       1  UNL1        0.0000
     84 H          -7.4943   -0.6979    2.0728 H       1  UNL1        0.0000
     85 H          -3.2765   -0.2482    1.4408 H       1  UNL1        0.0000
     86 H           5.5114   -6.0193    0.2071 H       1  UNL1        0.0000
     87 H           7.3105   -4.5598   -0.6168 H       1  UNL1        0.0000
     88 H           8.0700   -2.3446   -1.4034 H       1  UNL1        0.0000
     89 H           6.4598   -0.4404   -1.5298 H       1  UNL1        0.0000
     90 H           4.1168   -0.7470   -0.8995 H       1  UNL1        0.0000
     91 H          -5.3924   -0.6300   -2.2725 H       1  UNL1        0.0000
     92 H           1.3818    7.8328   -1.7199 H       1  UNL1        0.0000
     93 H          -0.2104    5.9109   -1.7159 H       1  UNL1        0.0000
     94 H           0.5312    3.6791   -1.0501 H       1  UNL1        0.0000
     95 H           3.7278    7.5005   -1.0200 H       1  UNL1        0.0000
     96 H           3.7273   -7.5006    1.0200 H       1  UNL1        0.0000
     97 H           0.5312   -3.6787    1.0500 H       1  UNL1        0.0000
     98 H          -7.4948    0.6982   -2.0720 H       1  UNL1        0.0000
     99 H          -3.2771    0.2477   -1.4398 H       1  UNL1        0.0000
    100 H          -7.4455    2.9407   -1.0325 H       1  UNL1        0.0000
    101 H          -4.9764   -6.5971   -1.0881 H       1  UNL1        0.0000
    102 H          -2.8776   -7.5156   -2.0158 H       1  UNL1        0.0000
    103 H           1.3812   -7.8325    1.7198 H       1  UNL1        0.0000
    104 H          -0.2107   -5.9104    1.7158 H       1  UNL1        0.0000
    105 H          -0.7909   -6.1471   -1.9790 H       1  UNL1        0.0000
    106 H          -0.7975   -3.8864   -1.0529 H       1  UNL1        0.0000
@<TRIPOS>BOND
     1     1    10    1
     2     1     8    1
     3     1    13    1
     4     1    11    1
     5     1     2    1
     6     3     9    1
     7     4    35    1
     8     4    12    1
     9     5    45    1
    10     5    14    1
    11     6     7    1
    12     7     2    1
    13     8     6    1
    14     9     2    1
    15    10     3    1
    16    11     4    1
    17    12     2    1
    18    13     5    1
    19    14     2    1
    20    15     6    1
    21    15    24   ar
    22    16    15   ar
    23    17    16   ar
    24    17    18   ar
    25    18    19   ar
    26    19    24   ar
    27    19    20   ar
    28    20    22   ar
    29    21    73    1
    30    22    21   ar
    31    22    74    1
    32    23    75    1
    33    23    21   ar
    34    24    23   ar
    35    25     3    1
    36    25    34   ar
    37    26    27   ar
    38    26    25   ar
    39    27    28   ar
    40    28    76    1
    41    28    29   ar
    42    29    30   ar
    43    30    77    1
    44    30    31   ar
    45    31    78    1
    46    32    31   ar
    47    32    79    1
    48    33    80    1
    49    33    32   ar
    50    34    29   ar
    51    34    33   ar
    52    35    44   ar
    53    36    35   ar
    54    37    36   ar
    55    37    38   ar
    56    38    39   ar
    57    39    44   ar
    58    39    40   ar
    59    40    42   ar
    60    41    83    1
    61    42    41   ar
    62    42    84    1
    63    43    85    1
    64    43    41   ar
    65    44    43   ar
    66    45    46   ar
    67    46    47   ar
    68    46    56   ar
    69    47    57   ar
    70    48    86    1
    71    48    47   ar
    72    49    48   ar
    73    50    87    1
    74    50    49   ar
    75    51    50   ar
    76    52    51   ar
    77    52    53   ar
    78    53    54   ar
    79    54    49   ar
    80    54    45   ar
    81    55    68   ar
    82    55    69   ar
    83    56    97    1
    84    56    59   ar
    85    57    96    1
    86    57    58   ar
    87    58    59   ar
    88    58   103    1
    89    59   104    1
    90    60    36   ar
    91    61    37   ar
    92    62    60   ar
    93    63    62   ar
    94    63    61   ar
    95    64    17   ar
    96    65    64   ar
    97    66    65   ar
    98    66    67   ar
    99    67    16   ar
   100    68    70   ar
   101    69    26   ar
   102    70   100    1
   103    70    27   ar
   104    71    18    1
   105    72    20    1
   106    81    38    1
   107    82    40    1
   108    88    51    1
   109    89    52    1
   110    90    53    1
   111    91    55    1
   112    92    65    1
   113    93    66    1
   114    94    67    1
   115    95    64    1
   116    98    68    1
   117    99    69    1
   118   101    61    1
   119   102    63    1
   120   105    62    1
   121   106    60    1
