@<TRIPOS>MOLECULE
RhRh_EtEtiPr-O2C4_9_sp
 114 117 0 0 0
SMALL
GASTEIGER

@<TRIPOS>ATOM
      1 Rh          0.0026   -0.0422   -1.2444 Rh      1  UNL1        0.0000
      2 Rh         -0.0125    0.0267    1.1283 Rh      1  UNL1        0.0000
      3 C          -1.6030   -2.1097   -0.0065 C.3     1  UNL1        0.0000
      4 C          -2.1108    1.5830   -0.1167 C.3     1  UNL1        0.0000
      5 C           1.5189    2.1452   -0.1112 C.3     1  UNL1        0.0000
      6 C           2.1271   -1.5671   -0.0081 C.3     1  UNL1        0.0000
      7 O          -1.5045    1.3594   -1.2149 O.3     1  UNL1        0.0000
      8 O          -1.7829    1.0678    1.0041 O.3     1  UNL1        0.0000
      9 O          -1.4020   -1.5447   -1.1313 O.3     1  UNL1        0.0000
     10 O          -1.0567   -1.7462    1.0879 O.3     1  UNL1        0.0000
     11 O           1.3882    1.4793   -1.1921 O.3     1  UNL1        0.0000
     12 O           0.9998    1.8158    1.0050 O.3     1  UNL1        0.0000
     13 O           1.5145   -1.4286   -1.1184 O.3     1  UNL1        0.0000
     14 O           1.7667   -1.0155    1.0835 O.3     1  UNL1        0.0000
     15 C          -3.3456    2.4913   -0.1400 C.3     1  UNL1        0.0000
     16 C          -3.3770    3.2641   -1.4873 C.3     1  UNL1        0.0000
     17 C          -4.6418    4.0856   -1.7507 C.3     1  UNL1        0.0000
     18 C          -3.3026    3.4999    1.0636 C.3     1  UNL1        0.0000
     19 C          -3.6701    2.9207    2.4386 C.3     1  UNL1        0.0000
     20 C          -1.9558    4.2347    1.1576 C.3     1  UNL1        0.0000
     21 C          -4.5737    1.5411   -0.0235 C.3     1  UNL1        0.0000
     22 C          -4.7681    0.5852   -1.2038 C.3     1  UNL1        0.0000
     23 C          -2.5177   -3.3405    0.0335 C.3     1  UNL1        0.0000
     24 C          -1.5678   -4.5741    0.0771 C.3     1  UNL1        0.0000
     25 C          -0.7043   -4.7805   -1.1702 C.3     1  UNL1        0.0000
     26 C          -3.4359   -3.3101    1.3067 C.3     1  UNL1        0.0000
     27 C          -2.7537   -3.6633    2.6382 C.3     1  UNL1        0.0000
     28 C          -4.1916   -1.9799    1.4505 C.3     1  UNL1        0.0000
     29 C          -3.3820   -3.3616   -1.2574 C.3     1  UNL1        0.0000
     30 C          -4.2480   -4.6082   -1.4565 C.3     1  UNL1        0.0000
     31 C           2.3876    3.4036   -0.1768 C.3     1  UNL1        0.0000
     32 C           2.1111    4.0888   -1.5476 C.3     1  UNL1        0.0000
     33 C           0.6594    4.5110   -1.7963 C.3     1  UNL1        0.0000
     34 C           3.8833    2.9084   -0.1672 C.3     1  UNL1        0.0000
     35 C           4.8882    4.0660   -0.0912 C.3     1  UNL1        0.0000
     36 C           4.2116    1.8525    0.9013 C.3     1  UNL1        0.0000
     37 C           2.0225    4.4074    0.9505 C.3     1  UNL1        0.0000
     38 C           2.3886    4.1045    2.4074 C.3     1  UNL1        0.0000
     39 C           3.3412   -2.5045    0.0194 C.3     1  UNL1        0.0000
     40 C           2.7593   -3.9485    0.0853 C.3     1  UNL1        0.0000
     41 C           1.9864   -4.2905    1.3618 C.3     1  UNL1        0.0000
     42 C           4.1797   -2.1953    1.2905 C.3     1  UNL1        0.0000
     43 C           5.3581   -3.1365    1.5533 C.3     1  UNL1        0.0000
     44 C           4.2166   -2.3298   -1.2721 C.3     1  UNL1        0.0000
     45 C           3.6418   -2.9325   -2.5646 C.3     1  UNL1        0.0000
     46 C           4.6173   -0.8666   -1.5166 C.3     1  UNL1        0.0000
     47 H          -2.5042    3.9212   -1.5390 H       1  UNL1        0.0000
     48 H          -3.2416    2.5476   -2.2988 H       1  UNL1        0.0000
     49 H          -4.8021    4.8657   -1.0008 H       1  UNL1        0.0000
     50 H          -5.5402    3.4617   -1.7770 H       1  UNL1        0.0000
     51 H          -4.5623    4.5828   -2.7223 H       1  UNL1        0.0000
     52 H          -4.0697    4.2473    0.8290 H       1  UNL1        0.0000
     53 H          -4.6792    2.5021    2.4566 H       1  UNL1        0.0000
     54 H          -3.6378    3.7209    3.1855 H       1  UNL1        0.0000
     55 H          -2.9682    2.1417    2.7408 H       1  UNL1        0.0000
     56 H          -2.0045    5.0129    1.9256 H       1  UNL1        0.0000
     57 H          -1.6797    4.7192    0.2178 H       1  UNL1        0.0000
     58 H          -1.1523    3.5457    1.4339 H       1  UNL1        0.0000
     59 H          -4.4687    0.9539    0.8910 H       1  UNL1        0.0000
     60 H          -5.6147   -0.0810   -1.0111 H       1  UNL1        0.0000
     61 H          -3.8832   -0.0368   -1.3680 H       1  UNL1        0.0000
     62 H          -4.9756    1.1165   -2.1365 H       1  UNL1        0.0000
     63 H          -0.9138   -4.4718    0.9448 H       1  UNL1        0.0000
     64 H          -2.1813   -5.4644    0.2560 H       1  UNL1        0.0000
     65 H          -0.0077   -5.6092   -1.0104 H       1  UNL1        0.0000
     66 H          -0.1158   -3.8887   -1.4039 H       1  UNL1        0.0000
     67 H          -1.3039   -5.0205   -2.0524 H       1  UNL1        0.0000
     68 H          -4.1821   -4.0936    1.1290 H       1  UNL1        0.0000
     69 H          -3.5019   -3.6528    3.4377 H       1  UNL1        0.0000
     70 H          -1.9742   -2.9422    2.8887 H       1  UNL1        0.0000
     71 H          -2.3091   -4.6613    2.6254 H       1  UNL1        0.0000
     72 H          -4.8917   -2.0342    2.2900 H       1  UNL1        0.0000
     73 H          -4.7705   -1.7330    0.5578 H       1  UNL1        0.0000
     74 H          -3.5003   -1.1553    1.6476 H       1  UNL1        0.0000
     75 H          -2.7184   -3.2471   -2.1156 H       1  UNL1        0.0000
     76 H          -4.7915   -4.5316   -2.4032 H       1  UNL1        0.0000
     77 H          -4.9929   -4.7350   -0.6656 H       1  UNL1        0.0000
     78 H          -3.6496   -5.5233   -1.4982 H       1  UNL1        0.0000
     79 H           2.7559    4.9701   -1.6211 H       1  UNL1        0.0000
     80 H           2.4181    3.4004   -2.3389 H       1  UNL1        0.0000
     81 H           0.5551    4.9139   -2.8086 H       1  UNL1        0.0000
     82 H           0.3317    5.2891   -1.1013 H       1  UNL1        0.0000
     83 H          -0.0244    3.6618   -1.7099 H       1  UNL1        0.0000
     84 H           4.0201    2.4165   -1.1386 H       1  UNL1        0.0000
     85 H           5.9056    3.6775   -0.2015 H       1  UNL1        0.0000
     86 H           4.8381    4.5824    0.8717 H       1  UNL1        0.0000
     87 H           4.7333    4.8069   -0.8793 H       1  UNL1        0.0000
     88 H           5.2331    1.4906    0.7457 H       1  UNL1        0.0000
     89 H           3.5443    0.9903    0.8539 H       1  UNL1        0.0000
     90 H           4.1568    2.2536    1.9138 H       1  UNL1        0.0000
     91 H           0.9417    4.5643    0.9051 H       1  UNL1        0.0000
     92 H           2.0153    3.1288    2.7192 H       1  UNL1        0.0000
     93 H           1.9365    4.8637    3.0545 H       1  UNL1        0.0000
     94 H           3.4666    4.1369    2.5822 H       1  UNL1        0.0000
     95 H           2.1006   -4.0911   -0.7730 H       1  UNL1        0.0000
     96 H           3.5909   -4.6504   -0.0447 H       1  UNL1        0.0000
     97 H           1.1731   -3.5818    1.5421 H       1  UNL1        0.0000
     98 H           2.6289   -4.2886    2.2465 H       1  UNL1        0.0000
     99 H           1.5477   -5.2894    1.2763 H       1  UNL1        0.0000
    100 H           4.5473   -1.1674    1.2318 H       1  UNL1        0.0000
    101 H           6.1109   -3.1002    0.7605 H       1  UNL1        0.0000
    102 H           5.0386   -4.1775    1.6601 H       1  UNL1        0.0000
    103 H           5.8560   -2.8516    2.4852 H       1  UNL1        0.0000
    104 H           5.1356   -2.8890   -1.0595 H       1  UNL1        0.0000
    105 H           4.3666   -2.7976   -3.3744 H       1  UNL1        0.0000
    106 H           2.7106   -2.4428   -2.8527 H       1  UNL1        0.0000
    107 H           3.4541   -4.0052   -2.4758 H       1  UNL1        0.0000
    108 H           5.1510   -0.4355   -0.6671 H       1  UNL1        0.0000
    109 H           3.7402   -0.2444   -1.7189 H       1  UNL1        0.0000
    110 H           5.2787   -0.8000   -2.3861 H       1  UNL1        0.0000
    111 H          -5.4686    2.1600    0.1056 H       1  UNL1        0.0000
    112 H           2.4735    5.3673    0.6717 H       1  UNL1        0.0000
    113 H           3.5114   -2.2100    2.1526 H       1  UNL1        0.0000
    114 H          -4.0211   -2.4744   -1.2705 H       1  UNL1        0.0000
@<TRIPOS>BOND
     1     1     7    1
     2     1    11    1
     3     1     9    1
     4     1    13    1
     5     1     2    1
     6     3    23    1
     7     3    10    1
     8     4     8    1
     9     5    12    1
    10     6    39    1
    11     6    14    1
    12     7     4    1
    13     8     2    1
    14     9     3    1
    15    10     2    1
    16    11     5    1
    17    12     2    1
    18    13     6    1
    19    14     2    1
    20    15     4    1
    21    15    21    1
    22    15    18    1
    23    16    15    1
    24    17    16    1
    25    17    49    1
    26    18    20    1
    27    18    19    1
    28    19    53    1
    29    19    55    1
    30    19    54    1
    31    20    58    1
    32    20    56    1
    33    21   111    1
    34    21    59    1
    35    22    60    1
    36    22    21    1
    37    23    24    1
    38    23    26    1
    39    24    64    1
    40    24    63    1
    41    25    65    1
    42    25    24    1
    43    26    28    1
    44    26    27    1
    45    27    70    1
    46    27    69    1
    47    28    74    1
    48    28    72    1
    49    29    23    1
    50    30    29    1
    51    30    77    1
    52    31    34    1
    53    31     5    1
    54    31    37    1
    55    32    31    1
    56    33    83    1
    57    33    32    1
    58    33    82    1
    59    34    35    1
    60    34    36    1
    61    35    86    1
    62    36    90    1
    63    37    38    1
    64    38    94    1
    65    38    92    1
    66    38    93    1
    67    39    40    1
    68    39    42    1
    69    40    41    1
    70    41    97    1
    71    41    98    1
    72    42    43    1
    73    42   113    1
    74    43   102    1
    75    43   103    1
    76    44   104    1
    77    44    39    1
    78    45   107    1
    79    45    44    1
    80    46    44    1
    81    46   108    1
    82    47    16    1
    83    48    16    1
    84    50    17    1
    85    51    17    1
    86    52    18    1
    87    57    20    1
    88    61    22    1
    89    62    22    1
    90    66    25    1
    91    67    25    1
    92    68    26    1
    93    71    27    1
    94    73    28    1
    95    75    29    1
    96    76    30    1
    97    78    30    1
    98    79    32    1
    99    80    32    1
   100    81    33    1
   101    84    34    1
   102    85    35    1
   103    87    35    1
   104    88    36    1
   105    89    36    1
   106    91    37    1
   107    95    40    1
   108    96    40    1
   109    99    41    1
   110   100    42    1
   111   101    43    1
   112   105    45    1
   113   106    45    1
   114   109    46    1
   115   110    46    1
   116   112    37    1
   117   114    29    1
