@<TRIPOS>MOLECULE
RhRh_ACB4_14_redo_sp
 114 129 0 0 0
SMALL
GASTEIGER

@<TRIPOS>ATOM
      1 Rh          0.9819   -0.0467   -0.5117 Rh      1  UNL1        0.0000
      2 Rh         -0.3255    0.0599    1.4923 Rh      1  UNL1        0.0000
      3 C          -0.7252   -2.3243   -0.0823 C.3     1  UNL1        0.0000
      4 C           1.2475    2.4186    0.9721 C.3     1  UNL1        0.0000
      5 C           2.1950   -1.3173    1.7708 C.3     1  UNL1        0.0000
      6 C          -1.5810    1.2334   -0.8273 C.3     1  UNL1        0.0000
      7 O          -0.5650    0.8781   -1.4984 O.3     1  UNL1        0.0000
      8 O          -1.7747    1.0199    0.4120 O.3     1  UNL1        0.0000
      9 O           1.6990    1.8238   -0.0569 O.3     1  UNL1        0.0000
     10 O           0.5027    1.9101    1.8670 O.3     1  UNL1        0.0000
     11 O           2.4385   -0.9997    0.5639 O.3     1  UNL1        0.0000
     12 O           1.2005   -0.9408    2.4619 O.3     1  UNL1        0.0000
     13 O           0.1632   -1.8898   -0.8765 O.3     1  UNL1        0.0000
     14 O          -1.1398   -1.7469    0.9730 O.3     1  UNL1        0.0000
     15 N          -3.7649    2.2645   -0.6678 N.am    1  UNL1        0.0000
     16 N           2.5593    4.2743    0.1156 N.am    1  UNL1        0.0000
     17 N           3.9121   -2.9792    1.4033 N.am    1  UNL1        0.0000
     18 N          -2.7939   -3.3971   -0.7175 N.am    1  UNL1        0.0000
     19 C          -2.6644    1.9988   -1.5747 C.3     1  UNL1        0.0000
     20 C          -3.0245    1.3406   -2.9437 C.3     1  UNL1        0.0000
     21 C          -2.0928    2.3548   -3.6527 C.3     1  UNL1        0.0000
     22 C          -2.0902    3.2173   -2.3663 C.3     1  UNL1        0.0000
     23 C          -4.6715    1.2518   -0.3024 C.2     1  UNL1        0.0000
     24 C          -5.4037    1.7645    0.8862 C.ar    1  UNL1        0.0000
     25 C          -6.4416    1.1967    1.6079 C.ar    1  UNL1        0.0000
     26 C          -6.9123    1.9066    2.7193 C.ar    1  UNL1        0.0000
     27 C          -6.3503    3.1375    3.0818 C.ar    1  UNL1        0.0000
     28 C          -5.2985    3.6988    2.3467 C.ar    1  UNL1        0.0000
     29 C          -4.8411    2.9893    1.2472 C.ar    1  UNL1        0.0000
     30 C          -3.7309    3.2908    0.2975 C.2     1  UNL1        0.0000
     31 C           1.5724    3.8980    1.1190 C.3     1  UNL1        0.0000
     32 C           1.9055    4.4112    2.5550 C.3     1  UNL1        0.0000
     33 C           0.9232    5.5881    2.3586 C.3     1  UNL1        0.0000
     34 C           0.3159    4.8400    1.1510 C.3     1  UNL1        0.0000
     35 C           3.9240    3.9268    0.2576 C.2     1  UNL1        0.0000
     36 C           4.5460    4.1460   -1.0764 C.ar    1  UNL1        0.0000
     37 C           5.8679    4.0288   -1.4775 C.ar    1  UNL1        0.0000
     38 C           6.1521    4.2687   -2.8272 C.ar    1  UNL1        0.0000
     39 C           5.1370    4.6074   -3.7315 C.ar    1  UNL1        0.0000
     40 C           3.8047    4.7168   -3.3155 C.ar    1  UNL1        0.0000
     41 C           3.5361    4.4817   -1.9758 C.ar    1  UNL1        0.0000
     42 C           2.2392    4.4880   -1.2440 C.2     1  UNL1        0.0000
     43 C           3.2110   -2.2326    2.4460 C.3     1  UNL1        0.0000
     44 C           2.6873   -3.1627    3.5808 C.3     1  UNL1        0.0000
     45 C           3.9170   -2.7811    4.4385 C.3     1  UNL1        0.0000
     46 C           4.1321   -1.5588    3.5165 C.3     1  UNL1        0.0000
     47 C           5.1247   -2.6200    0.7676 C.2     1  UNL1        0.0000
     48 C           5.1987   -3.4599   -0.4637 C.ar    1  UNL1        0.0000
     49 C           6.1972   -3.5479   -1.4209 C.ar    1  UNL1        0.0000
     50 C           5.9739   -4.4069   -2.5041 C.ar    1  UNL1        0.0000
     51 C           4.7870   -5.1432   -2.6130 C.ar    1  UNL1        0.0000
     52 C           3.7848   -5.0462   -1.6403 C.ar    1  UNL1        0.0000
     53 C           4.0199   -4.1953   -0.5711 C.ar    1  UNL1        0.0000
     54 C           3.1603   -3.8496    0.5870 C.2     1  UNL1        0.0000
     55 C          -1.3844   -3.6594   -0.4053 C.3     1  UNL1        0.0000
     56 C          -1.1541   -4.7878    0.6506 C.3     1  UNL1        0.0000
     57 C          -0.8147   -5.7669   -0.4976 C.3     1  UNL1        0.0000
     58 C          -0.6762   -4.5593   -1.4554 C.3     1  UNL1        0.0000
     59 C          -3.8873   -3.4391    0.1831 C.2     1  UNL1        0.0000
     60 C          -5.0687   -2.9766   -0.5988 C.ar    1  UNL1        0.0000
     61 C          -6.3930   -2.8528   -0.2097 C.ar    1  UNL1        0.0000
     62 C          -7.2958   -2.3577   -1.1577 C.ar    1  UNL1        0.0000
     63 C          -6.8712   -2.0026   -2.4446 C.ar    1  UNL1        0.0000
     64 C          -5.5306   -2.1280   -2.8230 C.ar    1  UNL1        0.0000
     65 C          -4.6476   -2.6197   -1.8759 C.ar    1  UNL1        0.0000
     66 C          -3.1759   -2.8081   -1.9454 C.2     1  UNL1        0.0000
     67 H          -2.8029    0.2773   -3.0383 H       1  UNL1        0.0000
     68 H          -4.0797    1.5101   -3.1640 H       1  UNL1        0.0000
     69 H          -2.4799    2.8270   -4.5587 H       1  UNL1        0.0000
     70 H          -1.1104    1.9285   -3.8587 H       1  UNL1        0.0000
     71 H          -2.8327    4.0161   -2.3926 H       1  UNL1        0.0000
     72 H          -1.1413    3.6218   -2.0154 H       1  UNL1        0.0000
     73 H          -6.7347    3.6609    3.9515 H       1  UNL1        0.0000
     74 H          -4.8497    4.6468    2.6231 H       1  UNL1        0.0000
     75 H           1.5443    3.6854    3.2848 H       1  UNL1        0.0000
     76 H           2.9541    4.6272    2.7463 H       1  UNL1        0.0000
     77 H           0.2502    5.8159    3.1883 H       1  UNL1        0.0000
     78 H           1.4347    6.5072    2.0598 H       1  UNL1        0.0000
     79 H           0.1195    5.3926    0.2366 H       1  UNL1        0.0000
     80 H          -0.5726    4.2644    1.4105 H       1  UNL1        0.0000
     81 H           7.1744    4.1868   -3.1825 H       1  UNL1        0.0000
     82 H           5.3897    4.7828   -4.7724 H       1  UNL1        0.0000
     83 H           3.0074    4.9697   -4.0059 H       1  UNL1        0.0000
     84 H           1.7559   -2.7594    3.9792 H       1  UNL1        0.0000
     85 H           2.5422   -4.2064    3.3051 H       1  UNL1        0.0000
     86 H           3.7460   -2.5826    5.4987 H       1  UNL1        0.0000
     87 H           4.7275   -3.5086    4.3419 H       1  UNL1        0.0000
     88 H           5.1369   -1.3018    3.1942 H       1  UNL1        0.0000
     89 H           3.6260   -0.6691    3.8982 H       1  UNL1        0.0000
     90 H           7.1074   -2.9654   -1.3294 H       1  UNL1        0.0000
     91 H           6.7298   -4.5017   -3.2772 H       1  UNL1        0.0000
     92 H           4.6428   -5.7954   -3.4683 H       1  UNL1        0.0000
     93 H           2.8582   -5.6050   -1.7152 H       1  UNL1        0.0000
     94 H          -0.2794   -4.5464    1.2532 H       1  UNL1        0.0000
     95 H          -1.9961   -5.0111    1.2986 H       1  UNL1        0.0000
     96 H           0.0775   -6.3811   -0.3573 H       1  UNL1        0.0000
     97 H          -1.6558   -6.4159   -0.7571 H       1  UNL1        0.0000
     98 H          -1.1456   -4.6110   -2.4363 H       1  UNL1        0.0000
     99 H           0.3572   -4.2326   -1.5705 H       1  UNL1        0.0000
    100 H          -6.7053   -3.1302    0.7914 H       1  UNL1        0.0000
    101 H          -5.1844   -1.8402   -3.8095 H       1  UNL1        0.0000
    102 O           1.1277    4.6328   -1.7119 O.2     1  UNL1        0.0000
    103 O           4.4476    3.5131    1.2712 O.2     1  UNL1        0.0000
    104 O           5.9354   -1.8029    1.1487 O.2     1  UNL1        0.0000
    105 O           2.0163   -4.1989    0.8103 O.2     1  UNL1        0.0000
    106 O          -2.4172   -2.5042   -2.8454 O.2     1  UNL1        0.0000
    107 O          -3.8666   -3.7832    1.3462 O.2     1  UNL1        0.0000
    108 O          -2.9371    4.2092    0.3291 O.2     1  UNL1        0.0000
    109 O          -4.7877    0.1802   -0.8606 O.2     1  UNL1        0.0000
    110 H          -6.8570    0.2374    1.3181 H       1  UNL1        0.0000
    111 H          -7.7217    1.4966    3.3150 H       1  UNL1        0.0000
    112 H           6.6418    3.7559   -0.7683 H       1  UNL1        0.0000
    113 H          -8.3433   -2.2461   -0.8946 H       1  UNL1        0.0000
    114 H          -7.5958   -1.6184   -3.1556 H       1  UNL1        0.0000
@<TRIPOS>BOND
     1     1     9    1
     2     1    11    1
     3     1     2    1
     4     2    10    1
     5     2    12    1
     6     3    14    1
     7     4    31    1
     8     4    10    1
     9     5    43    1
    10     5    12    1
    11     6     8    1
    12     7     6    1
    13     7     1    1
    14     8     2    1
    15     9     4    1
    16    11     5    1
    17    13     1    1
    18    13     3    1
    19    14     2    1
    20    15    23   am
    21    15    30   am
    22    16    35   am
    23    16    31    1
    24    17    43    1
    25    18    55    1
    26    18    59   am
    27    19     6    1
    28    19    15    1
    29    20    19    1
    30    21    20    1
    31    21    22    1
    32    22    72    1
    33    22    19    1
    34    23    24    1
    35    24    29   ar
    36    24    25   ar
    37    25    26   ar
    38    26    27   ar
    39    26   111    1
    40    27    73    1
    41    28    74    1
    42    28    27   ar
    43    29    28   ar
    44    30   108    2
    45    30    29    1
    46    31    34    1
    47    31    32    1
    48    32    76    1
    49    32    75    1
    50    33    32    1
    51    33    77    1
    52    34    80    1
    53    34    33    1
    54    35   103    2
    55    36    35    1
    56    37    36   ar
    57    37   112    1
    58    38    37   ar
    59    39    40   ar
    60    39    38   ar
    61    40    41   ar
    62    41    42    1
    63    41    36   ar
    64    42    16   am
    65    43    46    1
    66    43    44    1
    67    44    84    1
    68    44    45    1
    69    45    86    1
    70    46    89    1
    71    46    45    1
    72    47   104    2
    73    47    17   am
    74    48    47    1
    75    49    90    1
    76    49    48   ar
    77    50    49   ar
    78    51    50   ar
    79    51    52   ar
    80    52    53   ar
    81    53    48   ar
    82    53    54    1
    83    54   105    2
    84    54    17   am
    85    55     3    1
    86    55    56    1
    87    56    94    1
    88    56    95    1
    89    57    96    1
    90    57    56    1
    91    58    57    1
    92    58    55    1
    93    59   107    2
    94    60    61   ar
    95    60    59    1
    96    61   100    1
    97    62   113    1
    98    62    61   ar
    99    63    62   ar
   100    64    63   ar
   101    64    65   ar
   102    65    60   ar
   103    66    65    1
   104    66    18   am
   105    67    20    1
   106    68    20    1
   107    69    21    1
   108    70    21    1
   109    71    22    1
   110    78    33    1
   111    79    34    1
   112    81    38    1
   113    82    39    1
   114    83    40    1
   115    85    44    1
   116    87    45    1
   117    88    46    1
   118    91    50    1
   119    92    51    1
   120    93    52    1
   121    97    57    1
   122    98    58    1
   123    99    58    1
   124   101    64    1
   125   102    42    2
   126   106    66    2
   127   109    23    2
   128   110    25    1
   129   114    63    1
