@<TRIPOS>MOLECULE
RhRh_EtEtiPr-O2C4_34_sp
 114 117 0 0 0
SMALL
GASTEIGER

@<TRIPOS>ATOM
      1 Rh         -0.0935    0.0145   -1.2059 Rh      1  UNL1        0.0000
      2 Rh          0.0240    0.1005    1.1709 Rh      1  UNL1        0.0000
      3 C           1.0600    2.4584   -0.1602 C.3     1  UNL1        0.0000
      4 C           2.3769   -1.0370   -0.1016 C.3     1  UNL1        0.0000
      5 C          -1.0067   -2.4012    0.1410 C.3     1  UNL1        0.0000
      6 C          -2.4588    1.1212    0.0384 C.3     1  UNL1        0.0000
      7 O           1.8300   -0.7050   -1.2054 O.3     1  UNL1        0.0000
      8 O           1.8599   -0.8291    1.0446 O.3     1  UNL1        0.0000
      9 O           0.6434    1.9330   -1.2458 O.3     1  UNL1        0.0000
     10 O           0.9320    1.9351    0.9936 O.3     1  UNL1        0.0000
     11 O          -0.8005   -1.9139   -1.0188 O.3     1  UNL1        0.0000
     12 O          -0.8312   -1.7638    1.2307 O.3     1  UNL1        0.0000
     13 O          -2.0028    0.7456   -1.0911 O.3     1  UNL1        0.0000
     14 O          -1.8325    1.0046    1.1428 O.3     1  UNL1        0.0000
     15 C           3.7130   -1.7835   -0.1967 C.3     1  UNL1        0.0000
     16 C           3.3619   -3.2683   -0.5403 C.3     1  UNL1        0.0000
     17 C           2.7572   -3.5468   -1.9183 C.3     1  UNL1        0.0000
     18 C           4.5269   -1.7493    1.1401 C.3     1  UNL1        0.0000
     19 C           4.8447   -0.3266    1.6217 C.3     1  UNL1        0.0000
     20 C           3.9385   -2.5678    2.3027 C.3     1  UNL1        0.0000
     21 C           4.5247   -1.1292   -1.3530 C.3     1  UNL1        0.0000
     22 C           5.8834   -1.7657   -1.6514 C.3     1  UNL1        0.0000
     23 C           1.6951    3.8481   -0.2695 C.3     1  UNL1        0.0000
     24 C           0.4829    4.8186   -0.4603 C.3     1  UNL1        0.0000
     25 C          -0.4833    4.9247    0.7217 C.3     1  UNL1        0.0000
     26 C           2.4719    4.1981    1.0388 C.3     1  UNL1        0.0000
     27 C           3.6766    3.2910    1.3326 C.3     1  UNL1        0.0000
     28 C           2.9178    5.6659    1.0993 C.3     1  UNL1        0.0000
     29 C           2.5422    3.9275   -1.5712 C.3     1  UNL1        0.0000
     30 C           3.5390    2.7979   -1.8635 C.3     1  UNL1        0.0000
     31 C          -1.5256   -3.8416    0.2388 C.3     1  UNL1        0.0000
     32 C          -0.9408   -4.6937   -0.9259 C.3     1  UNL1        0.0000
     33 C          -1.5056   -4.4913   -2.3358 C.3     1  UNL1        0.0000
     34 C          -3.0953   -3.7627    0.1603 C.3     1  UNL1        0.0000
     35 C          -3.7598   -5.1476    0.1617 C.3     1  UNL1        0.0000
     36 C          -3.7275   -2.8979    1.2610 C.3     1  UNL1        0.0000
     37 C          -1.0692   -4.4502    1.5901 C.3     1  UNL1        0.0000
     38 C           0.4467   -4.5515    1.7868 C.3     1  UNL1        0.0000
     39 C          -3.8766    1.7112    0.0620 C.3     1  UNL1        0.0000
     40 C          -4.0486    2.6471    1.2910 C.3     1  UNL1        0.0000
     41 C          -4.2451    1.9923    2.6631 C.3     1  UNL1        0.0000
     42 C          -4.8548    0.5016    0.1681 C.3     1  UNL1        0.0000
     43 C          -4.8851   -0.4592   -1.0229 C.3     1  UNL1        0.0000
     44 C          -4.0997    2.4994   -1.2728 C.3     1  UNL1        0.0000
     45 C          -5.5488    2.9583   -1.4820 C.3     1  UNL1        0.0000
     46 C          -3.1421    3.6907   -1.4150 C.3     1  UNL1        0.0000
     47 H           4.2839   -3.8497   -0.4231 H       1  UNL1        0.0000
     48 H           2.6743   -3.6422    0.2218 H       1  UNL1        0.0000
     49 H           3.4367   -3.2755   -2.7309 H       1  UNL1        0.0000
     50 H           1.8230   -3.0012   -2.0667 H       1  UNL1        0.0000
     51 H           2.5439   -4.6166   -2.0139 H       1  UNL1        0.0000
     52 H           5.4806   -2.2279    0.8860 H       1  UNL1        0.0000
     53 H           5.3290    0.2799    0.8519 H       1  UNL1        0.0000
     54 H           5.5227   -0.3655    2.4802 H       1  UNL1        0.0000
     55 H           3.9345    0.1867    1.9396 H       1  UNL1        0.0000
     56 H           4.6208   -2.5171    3.1577 H       1  UNL1        0.0000
     57 H           3.8166   -3.6239    2.0512 H       1  UNL1        0.0000
     58 H           2.9707   -2.1743    2.6162 H       1  UNL1        0.0000
     59 H           3.9080   -1.1542   -2.2521 H       1  UNL1        0.0000
     60 H           6.3284   -1.2914   -2.5315 H       1  UNL1        0.0000
     61 H           5.7972   -2.8356   -1.8653 H       1  UNL1        0.0000
     62 H           6.5911   -1.6472   -0.8261 H       1  UNL1        0.0000
     63 H           0.8814    5.8081   -0.7077 H       1  UNL1        0.0000
     64 H          -0.0657    4.4817   -1.3452 H       1  UNL1        0.0000
     65 H          -1.3369    5.5534    0.4525 H       1  UNL1        0.0000
     66 H          -0.0109    5.3686    1.6020 H       1  UNL1        0.0000
     67 H          -0.8701    3.9443    1.0149 H       1  UNL1        0.0000
     68 H           1.7602    4.0354    1.8527 H       1  UNL1        0.0000
     69 H           3.9675    3.3953    2.3830 H       1  UNL1        0.0000
     70 H           4.5471    3.5655    0.7300 H       1  UNL1        0.0000
     71 H           3.4513    2.2391    1.1575 H       1  UNL1        0.0000
     72 H           3.4436    5.8498    2.0416 H       1  UNL1        0.0000
     73 H           2.0813    6.3673    1.0501 H       1  UNL1        0.0000
     74 H           3.6125    5.9121    0.2894 H       1  UNL1        0.0000
     75 H           3.0666    4.8893   -1.5650 H       1  UNL1        0.0000
     76 H           3.9566    2.9327   -2.8666 H       1  UNL1        0.0000
     77 H           3.0506    1.8210   -1.8432 H       1  UNL1        0.0000
     78 H           4.3754    2.7765   -1.1640 H       1  UNL1        0.0000
     79 H           0.1381   -4.5191   -0.9627 H       1  UNL1        0.0000
     80 H          -1.0623   -5.7459   -0.6429 H       1  UNL1        0.0000
     81 H          -0.9781   -5.1475   -3.0359 H       1  UNL1        0.0000
     82 H          -1.3752   -3.4617   -2.6689 H       1  UNL1        0.0000
     83 H          -2.5688   -4.7389   -2.3990 H       1  UNL1        0.0000
     84 H          -3.3226   -3.2847   -0.7994 H       1  UNL1        0.0000
     85 H          -4.8344   -5.0381   -0.0156 H       1  UNL1        0.0000
     86 H          -3.6403   -5.6470    1.1279 H       1  UNL1        0.0000
     87 H          -3.3629   -5.8095   -0.6107 H       1  UNL1        0.0000
     88 H          -4.7996   -2.7883    1.0718 H       1  UNL1        0.0000
     89 H          -3.2882   -1.9007    1.3125 H       1  UNL1        0.0000
     90 H          -3.6155   -3.3590    2.2469 H       1  UNL1        0.0000
     91 H          -1.5076   -5.4504    1.6692 H       1  UNL1        0.0000
     92 H           0.9157   -5.2143    1.0537 H       1  UNL1        0.0000
     93 H           0.6722   -4.9528    2.7797 H       1  UNL1        0.0000
     94 H           0.9187   -3.5684    1.7168 H       1  UNL1        0.0000
     95 H          -3.1823    3.3124    1.3424 H       1  UNL1        0.0000
     96 H          -4.9140    3.2882    1.0936 H       1  UNL1        0.0000
     97 H          -3.4203    1.3208    2.9059 H       1  UNL1        0.0000
     98 H          -5.1800    1.4273    2.7181 H       1  UNL1        0.0000
     99 H          -4.2905    2.7679    3.4344 H       1  UNL1        0.0000
    100 H          -4.5999   -0.0625    1.0688 H       1  UNL1        0.0000
    101 H          -3.8978   -0.8815   -1.2243 H       1  UNL1        0.0000
    102 H          -5.2267    0.0299   -1.9391 H       1  UNL1        0.0000
    103 H          -5.5713   -1.2858   -0.8155 H       1  UNL1        0.0000
    104 H          -3.8561    1.8028   -2.0786 H       1  UNL1        0.0000
    105 H          -5.6372    3.4525   -2.4548 H       1  UNL1        0.0000
    106 H          -5.8682    3.6808   -0.7242 H       1  UNL1        0.0000
    107 H          -6.2580    2.1269   -1.4724 H       1  UNL1        0.0000
    108 H          -2.1006    3.3820   -1.2991 H       1  UNL1        0.0000
    109 H          -3.3538    4.4735   -0.6804 H       1  UNL1        0.0000
    110 H          -3.2439    4.1376   -2.4091 H       1  UNL1        0.0000
    111 H           4.6654   -0.0671   -1.1302 H       1  UNL1        0.0000
    112 H          -1.4831   -3.8541    2.4052 H       1  UNL1        0.0000
    113 H          -5.8582    0.9060    0.3420 H       1  UNL1        0.0000
    114 H           1.8394    3.9717   -2.4086 H       1  UNL1        0.0000
@<TRIPOS>BOND
     1     1     7    1
     2     1    13    1
     3     1    11    1
     4     1     2    1
     5     2    12    1
     6     3    10    1
     7     4     8    1
     8     5    31    1
     9     5    12    1
    10     6    39    1
    11     6    14    1
    12     7     4    1
    13     8     2    1
    14     9     1    1
    15     9     3    1
    16    10     2    1
    17    11     5    1
    18    13     6    1
    19    14     2    1
    20    15     4    1
    21    15    18    1
    22    16    47    1
    23    16    15    1
    24    16    48    1
    25    17    16    1
    26    18    19    1
    27    18    20    1
    28    19    55    1
    29    19    54    1
    30    20    58    1
    31    20    56    1
    32    21   111    1
    33    21    15    1
    34    22    21    1
    35    22    62    1
    36    23     3    1
    37    23    26    1
    38    24    23    1
    39    24    25    1
    40    25    67    1
    41    25    66    1
    42    26    28    1
    43    26    27    1
    44    26    68    1
    45    27    69    1
    46    28    72    1
    47    29    75    1
    48    29    23    1
    49    30    77    1
    50    30    29    1
    51    30    78    1
    52    31    37    1
    53    32    80    1
    54    32    31    1
    55    33    32    1
    56    34    35    1
    57    34    31    1
    58    34    36    1
    59    35    86    1
    60    36    89    1
    61    36    90    1
    62    37    91    1
    63    37    38    1
    64    37   112    1
    65    38    93    1
    66    39    42    1
    67    39    40    1
    68    40    95    1
    69    40    41    1
    70    41    98    1
    71    41    97    1
    72    41    99    1
    73    42   113    1
    74    42   100    1
    75    43   103    1
    76    43    42    1
    77    44    39    1
    78    45   107    1
    79    45    44    1
    80    45   106    1
    81    46   108    1
    82    46    44    1
    83    46   109    1
    84    49    17    1
    85    50    17    1
    86    51    17    1
    87    52    18    1
    88    53    19    1
    89    57    20    1
    90    59    21    1
    91    60    22    1
    92    61    22    1
    93    63    24    1
    94    64    24    1
    95    65    25    1
    96    70    27    1
    97    71    27    1
    98    73    28    1
    99    74    28    1
   100    76    30    1
   101    79    32    1
   102    81    33    1
   103    82    33    1
   104    83    33    1
   105    84    34    1
   106    85    35    1
   107    87    35    1
   108    88    36    1
   109    92    38    1
   110    94    38    1
   111    96    40    1
   112   101    43    1
   113   102    43    1
   114   104    44    1
   115   105    45    1
   116   110    46    1
   117   114    29    1
