@<TRIPOS>MOLECULE
RhRh_pFPhMe2-O2C4_20kcal_2_sp
 94 101 0 0 0
SMALL
GASTEIGER

@<TRIPOS>ATOM
      1 Rh         -0.1456    0.0756    1.0288 Rh      1  UNL1        0.0000
      2 Rh          0.0227    0.4286   -1.3219 Rh      1  UNL1        0.0000
      3 C           1.9271    1.9397    0.2487 C.3     1  UNL1        0.0000
      4 C          -1.8377    2.1900    0.0111 C.3     1  UNL1        0.0000
      5 C          -2.0215   -1.4573   -0.5410 C.3     1  UNL1        0.0000
      6 C           1.6537   -1.7429   -0.3193 C.3     1  UNL1        0.0000
      7 O          -1.6115    1.5184    1.0660 O.3     1  UNL1        0.0000
      8 O          -1.2320    2.0446   -1.1007 O.3     1  UNL1        0.0000
      9 O           1.2948    1.5208    1.2728 O.3     1  UNL1        0.0000
     10 O           1.6616    1.6240   -0.9550 O.3     1  UNL1        0.0000
     11 O           1.3187   -1.3646    0.8476 O.3     1  UNL1        0.0000
     12 O           1.2319   -1.2260   -1.4061 O.3     1  UNL1        0.0000
     13 O          -1.5670   -1.3491    0.6422 O.3     1  UNL1        0.0000
     14 O          -1.6180   -0.7938   -1.5504 O.3     1  UNL1        0.0000
     15 F           7.6964   -0.2242    1.7711 F       1  UNL1        0.0000
     16 F           7.8656   -0.7833   -1.1979 F       1  UNL1        0.0000
     17 F          -7.0309   -2.1582    3.2903 F       1  UNL1        0.0000
     18 F          -7.6396    0.5580   -1.7814 F       1  UNL1        0.0000
     19 C          -2.9725    3.2230    0.0620 C.3     1  UNL1        0.0000
     20 C          -4.2407    2.4805   -0.4044 C.ar    1  UNL1        0.0000
     21 C          -5.4113    2.4518    0.3627 C.ar    1  UNL1        0.0000
     22 C          -6.5631    1.8105   -0.0961 C.ar    1  UNL1        0.0000
     23 C          -6.5335    1.1840   -1.3333 C.ar    1  UNL1        0.0000
     24 C          -5.3896    1.1863   -2.1222 C.ar    1  UNL1        0.0000
     25 C          -4.2498    1.8320   -1.6502 C.ar    1  UNL1        0.0000
     26 C           3.1136    2.8799    0.4995 C.3     1  UNL1        0.0000
     27 C           4.3517    2.0103    0.7945 C.ar    1  UNL1        0.0000
     28 C           5.6204    2.3723    0.3257 C.ar    1  UNL1        0.0000
     29 C           6.7556    1.6342    0.6605 C.ar    1  UNL1        0.0000
     30 C           6.6087    0.5176    1.4690 C.ar    1  UNL1        0.0000
     31 C           5.3686    0.1209    1.9473 C.ar    1  UNL1        0.0000
     32 C           4.2475    0.8722    1.6093 C.ar    1  UNL1        0.0000
     33 C           2.6514   -2.9020   -0.4425 C.3     1  UNL1        0.0000
     34 C           4.0618   -2.3027   -0.6037 C.ar    1  UNL1        0.0000
     35 C           5.1764   -2.9001   -0.0028 C.ar    1  UNL1        0.0000
     36 C           6.4643   -2.4057   -0.2092 C.ar    1  UNL1        0.0000
     37 C           6.6280   -1.2946   -1.0219 C.ar    1  UNL1        0.0000
     38 C           5.5491   -0.6705   -1.6309 C.ar    1  UNL1        0.0000
     39 C           4.2722   -1.1809   -1.4204 C.ar    1  UNL1        0.0000
     40 C          -3.0910   -2.5325   -0.7664 C.3     1  UNL1        0.0000
     41 C          -4.1234   -2.4599    0.3606 C.ar    1  UNL1        0.0000
     42 C          -4.6685   -1.2154    0.7099 C.ar    1  UNL1        0.0000
     43 C          -5.6428   -1.1040    1.6957 C.ar    1  UNL1        0.0000
     44 C          -6.0831   -2.2581    2.3327 C.ar    1  UNL1        0.0000
     45 C          -5.5737   -3.5069    2.0117 C.ar    1  UNL1        0.0000
     46 C          -4.5909   -3.5971    1.0238 C.ar    1  UNL1        0.0000
     47 C           2.5226   -3.7976    0.8008 C.3     1  UNL1        0.0000
     48 C           2.3154   -3.7263   -1.7061 C.3     1  UNL1        0.0000
     49 C          -3.7946   -2.3283   -2.1211 C.3     1  UNL1        0.0000
     50 C          -2.3086   -3.8656   -0.7891 C.3     1  UNL1        0.0000
     51 C          -3.0918    3.7720    1.4911 C.3     1  UNL1        0.0000
     52 C          -2.6723    4.3846   -0.9085 C.3     1  UNL1        0.0000
     53 C           2.8180    3.7539    1.7391 C.3     1  UNL1        0.0000
     54 C           3.2995    3.7823   -0.7315 C.3     1  UNL1        0.0000
     55 H          -5.4416    2.9335    1.3318 H       1  UNL1        0.0000
     56 H          -7.4719    1.7881    0.4945 H       1  UNL1        0.0000
     57 H          -5.3999    0.6879   -3.0848 H       1  UNL1        0.0000
     58 H          -3.3494    1.8188   -2.2528 H       1  UNL1        0.0000
     59 H           5.7412    3.2391   -0.3124 H       1  UNL1        0.0000
     60 H           7.7369    1.8972    0.2836 H       1  UNL1        0.0000
     61 H           5.2875   -0.7730    2.5539 H       1  UNL1        0.0000
     62 H           3.2786    0.5597    1.9787 H       1  UNL1        0.0000
     63 H           5.0544   -3.7626    0.6409 H       1  UNL1        0.0000
     64 H           7.3279   -2.8505    0.2707 H       1  UNL1        0.0000
     65 H           5.7116    0.2124   -2.2373 H       1  UNL1        0.0000
     66 H           3.4290   -0.6906   -1.8910 H       1  UNL1        0.0000
     67 H          -4.3223   -0.3126    0.2182 H       1  UNL1        0.0000
     68 H          -6.0585   -0.1419    1.9682 H       1  UNL1        0.0000
     69 H          -5.9387   -4.3862    2.5303 H       1  UNL1        0.0000
     70 H          -4.1912   -4.5749    0.7827 H       1  UNL1        0.0000
     71 H           3.1263   -4.7010    0.6844 H       1  UNL1        0.0000
     72 H           2.8332   -3.2748    1.7065 H       1  UNL1        0.0000
     73 H           1.4825   -4.1073    0.9296 H       1  UNL1        0.0000
     74 H           1.3113   -4.1572   -1.6335 H       1  UNL1        0.0000
     75 H           2.3611   -3.1074   -2.6022 H       1  UNL1        0.0000
     76 H           3.0377   -4.5411   -1.8047 H       1  UNL1        0.0000
     77 H          -4.5446   -3.1125   -2.2565 H       1  UNL1        0.0000
     78 H          -4.3003   -1.3620   -2.1551 H       1  UNL1        0.0000
     79 H          -3.0785   -2.3721   -2.9447 H       1  UNL1        0.0000
     80 H          -1.8443   -4.0666    0.1790 H       1  UNL1        0.0000
     81 H          -2.9721   -4.6954   -1.0466 H       1  UNL1        0.0000
     82 H          -1.5250   -3.8195   -1.5513 H       1  UNL1        0.0000
     83 H          -3.8741    4.5343    1.5399 H       1  UNL1        0.0000
     84 H          -3.3119    2.9827    2.2107 H       1  UNL1        0.0000
     85 H          -2.1490    4.2396    1.7866 H       1  UNL1        0.0000
     86 H          -3.5035    5.0946   -0.8890 H       1  UNL1        0.0000
     87 H          -1.7597    4.9090   -0.6091 H       1  UNL1        0.0000
     88 H          -2.5395    4.0297   -1.9302 H       1  UNL1        0.0000
     89 H           3.6746    4.4060    1.9299 H       1  UNL1        0.0000
     90 H           1.9340    4.3783    1.5738 H       1  UNL1        0.0000
     91 H           2.6441    3.1375    2.6212 H       1  UNL1        0.0000
     92 H           4.0558    4.5459   -0.5342 H       1  UNL1        0.0000
     93 H           3.5939    3.2068   -1.6103 H       1  UNL1        0.0000
     94 H           2.3624    4.2953   -0.9617 H       1  UNL1        0.0000
@<TRIPOS>BOND
     1     1     7    1
     2     1     9    1
     3     2     8    1
     4     2    10    1
     5     2     1    1
     6     3    26    1
     7     3     9    1
     8     4    19    1
     9     4     7    1
    10     5    13    1
    11     6    11    1
    12     8     4    1
    13    10     3    1
    14    11     1    1
    15    12     2    1
    16    12     6    1
    17    13     1    1
    18    14     2    1
    19    14     5    1
    20    16    37    1
    21    18    23    1
    22    19    51    1
    23    20    19    1
    24    20    21   ar
    25    21    55    1
    26    22    21   ar
    27    22    56    1
    28    23    22   ar
    29    24    25   ar
    30    24    23   ar
    31    25    20   ar
    32    26    27    1
    33    26    53    1
    34    27    32   ar
    35    28    29   ar
    36    28    27   ar
    37    29    30   ar
    38    30    15    1
    39    30    31   ar
    40    31    61    1
    41    32    31   ar
    42    32    62    1
    43    33     6    1
    44    33    47    1
    45    34    33    1
    46    34    35   ar
    47    35    63    1
    48    36    35   ar
    49    36    64    1
    50    37    36   ar
    51    38    39   ar
    52    38    37   ar
    53    39    34   ar
    54    40     5    1
    55    40    41    1
    56    41    42   ar
    57    41    46   ar
    58    42    43   ar
    59    43    68    1
    60    43    44   ar
    61    44    17    1
    62    45    44   ar
    63    45    69    1
    64    46    45   ar
    65    47    73    1
    66    47    72    1
    67    48    74    1
    68    48    33    1
    69    49    40    1
    70    50    40    1
    71    50    80    1
    72    51    83    1
    73    51    85    1
    74    51    84    1
    75    52    86    1
    76    52    87    1
    77    52    19    1
    78    53    89    1
    79    53    91    1
    80    54    92    1
    81    54    26    1
    82    57    24    1
    83    58    25    1
    84    59    28    1
    85    60    29    1
    86    65    38    1
    87    66    39    1
    88    67    42    1
    89    70    46    1
    90    71    47    1
    91    75    48    1
    92    76    48    1
    93    77    49    1
    94    78    49    1
    95    79    49    1
    96    81    50    1
    97    82    50    1
    98    88    52    1
    99    90    53    1
   100    93    54    1
   101    94    54    1
