@<TRIPOS>MOLECULE
RhRh_PhCy2-O2C4_2_sp
 198 213 0 0 0
SMALL
GASTEIGER

@<TRIPOS>ATOM
      1 Rh          0.0127    0.0875    1.1722 Rh      1  UNL1        0.0000
      2 Rh          0.0231    0.1371   -1.2023 Rh      1  UNL1        0.0000
      3 C          -2.6189    0.4453   -0.0322 C.3     1  UNL1        0.0000
      4 C           0.4072    2.7369    0.0263 C.3     1  UNL1        0.0000
      5 C          -0.3090   -2.5214   -0.0917 C.3     1  UNL1        0.0000
      6 C           2.6466   -0.2937    0.0544 C.3     1  UNL1        0.0000
      7 O          -2.0363    0.2233    1.0796 O.3     1  UNL1        0.0000
      8 O          -2.0002    0.5105   -1.1429 O.3     1  UNL1        0.0000
      9 O          -0.1463   -1.9668    1.0410 O.3     1  UNL1        0.0000
     10 O          -0.3632   -1.8802   -1.1936 O.3     1  UNL1        0.0000
     11 O           2.0581   -0.0633    1.1600 O.3     1  UNL1        0.0000
     12 O           2.0535   -0.2812   -1.0753 O.3     1  UNL1        0.0000
     13 O           0.2052    2.1363    1.1305 O.3     1  UNL1        0.0000
     14 O           0.3597    2.1617   -1.1115 O.3     1  UNL1        0.0000
     15 C          -4.1562    0.6122   -0.0268 C.3     1  UNL1        0.0000
     16 C          -4.5611    1.8738    0.7745 C.ar    1  UNL1        0.0000
     17 C          -5.8309    2.4449    0.5827 C.ar    1  UNL1        0.0000
     18 C          -6.2525    3.5533    1.3148 C.ar    1  UNL1        0.0000
     19 C          -5.4143    4.1306    2.2674 C.ar    1  UNL1        0.0000
     20 C          -4.1560    3.5738    2.4783 C.ar    1  UNL1        0.0000
     21 C          -3.7388    2.4614    1.7466 C.ar    1  UNL1        0.0000
     22 C          -0.4276   -4.0566   -0.1673 C.3     1  UNL1        0.0000
     23 C           0.9068   -4.6026   -0.7658 C.ar    1  UNL1        0.0000
     24 C           1.5499   -3.9404   -1.8245 C.ar    1  UNL1        0.0000
     25 C           2.6861   -4.4708   -2.4325 C.ar    1  UNL1        0.0000
     26 C           3.2207   -5.6835   -2.0011 C.ar    1  UNL1        0.0000
     27 C           2.5860   -6.3645   -0.9653 C.ar    1  UNL1        0.0000
     28 C           1.4438   -5.8344   -0.3631 C.ar    1  UNL1        0.0000
     29 C           4.1593   -0.6287    0.1102 C.3     1  UNL1        0.0000
     30 C           4.9691    0.6114    0.5199 C.ar    1  UNL1        0.0000
     31 C           4.4362    1.9004    0.4623 C.ar    1  UNL1        0.0000
     32 C           5.2239    3.0257    0.7077 C.ar    1  UNL1        0.0000
     33 C           6.5649    2.8819    1.0511 C.ar    1  UNL1        0.0000
     34 C           7.1073    1.6000    1.1462 C.ar    1  UNL1        0.0000
     35 C           6.3208    0.4818    0.8803 C.ar    1  UNL1        0.0000
     36 C           0.6746    4.2502    0.0500 C.3     1  UNL1        0.0000
     37 C           1.9672    4.6111   -0.7296 C.ar    1  UNL1        0.0000
     38 C           2.4520    5.9295   -0.6527 C.ar    1  UNL1        0.0000
     39 C           3.5878    6.3342   -1.3491 C.ar    1  UNL1        0.0000
     40 C           4.2816    5.4303   -2.1544 C.ar    1  UNL1        0.0000
     41 C           3.8078    4.1269   -2.2571 C.ar    1  UNL1        0.0000
     42 C           2.6642    3.7274   -1.5629 C.ar    1  UNL1        0.0000
     43 C          -4.7544   -0.6807    0.7013 C.3     1  UNL1        0.0000
     44 C          -4.5666   -0.6943    2.2331 C.3     1  UNL1        0.0000
     45 C          -6.2481   -0.9312    0.4078 C.3     1  UNL1        0.0000
     46 C          -5.0212   -2.0266    2.8429 C.3     1  UNL1        0.0000
     47 C          -6.7190   -2.2645    1.0075 C.3     1  UNL1        0.0000
     48 C          -6.4863   -2.3263    2.5187 C.3     1  UNL1        0.0000
     49 C          -4.6911    0.7097   -1.5005 C.3     1  UNL1        0.0000
     50 C          -4.2758    1.9776   -2.2693 C.3     1  UNL1        0.0000
     51 C          -4.4409   -0.5354   -2.3705 C.3     1  UNL1        0.0000
     52 C          -5.0335    2.0816   -3.5990 C.3     1  UNL1        0.0000
     53 C          -5.2009   -0.4365   -3.6992 C.3     1  UNL1        0.0000
     54 C          -4.8217    0.8354   -4.4665 C.3     1  UNL1        0.0000
     55 C          -0.5564    4.9609   -0.6633 C.3     1  UNL1        0.0000
     56 C          -0.4286    5.1426   -2.1876 C.3     1  UNL1        0.0000
     57 C          -1.9136    4.2889   -0.3854 C.3     1  UNL1        0.0000
     58 C          -1.5821    6.0003   -2.7312 C.3     1  UNL1        0.0000
     59 C          -3.0709    5.1684   -0.8688 C.3     1  UNL1        0.0000
     60 C          -2.9593    5.4290   -2.3744 C.3     1  UNL1        0.0000
     61 C           0.8376    4.7759    1.5301 C.3     1  UNL1        0.0000
     62 C          -0.4068    4.7455    2.4407 C.3     1  UNL1        0.0000
     63 C           2.0515    4.1553    2.2496 C.3     1  UNL1        0.0000
     64 C          -0.1176    5.3963    3.8022 C.3     1  UNL1        0.0000
     65 C           2.3206    4.8206    3.6032 C.3     1  UNL1        0.0000
     66 C           1.0844    4.7594    4.5047 C.3     1  UNL1        0.0000
     67 C          -1.5190   -4.4248   -1.2678 C.3     1  UNL1        0.0000
     68 C          -1.8250   -5.9317   -1.3088 C.3     1  UNL1        0.0000
     69 C          -2.8415   -3.6309   -1.2978 C.3     1  UNL1        0.0000
     70 C          -2.6231   -6.2962   -2.5677 C.3     1  UNL1        0.0000
     71 C          -3.6261   -3.9761   -2.5734 C.3     1  UNL1        0.0000
     72 C          -3.9140   -5.4780   -2.6692 C.3     1  UNL1        0.0000
     73 C          -0.7203   -4.6800    1.2413 C.3     1  UNL1        0.0000
     74 C           0.4050   -4.5100    2.2875 C.3     1  UNL1        0.0000
     75 C          -2.0549   -4.2492    1.8806 C.3     1  UNL1        0.0000
     76 C           0.1268   -5.3382    3.5463 C.3     1  UNL1        0.0000
     77 C          -2.3424   -5.0300    3.1719 C.3     1  UNL1        0.0000
     78 C          -1.2011   -4.9234    4.1865 C.3     1  UNL1        0.0000
     79 C           4.3841   -1.7695    1.1685 C.3     1  UNL1        0.0000
     80 C           4.1920   -1.3708    2.6447 C.3     1  UNL1        0.0000
     81 C           3.5949   -3.0529    0.8779 C.3     1  UNL1        0.0000
     82 C           4.6800   -2.4958    3.5671 C.3     1  UNL1        0.0000
     83 C           4.0586   -4.1906    1.7978 C.3     1  UNL1        0.0000
     84 C           3.9448   -3.8098    3.2778 C.3     1  UNL1        0.0000
     85 C           4.5984   -1.0855   -1.3400 C.3     1  UNL1        0.0000
     86 C           4.7072    0.0971   -2.3255 C.3     1  UNL1        0.0000
     87 C           5.8972   -1.9094   -1.4200 C.3     1  UNL1        0.0000
     88 C           4.9217   -0.3945   -3.7610 C.3     1  UNL1        0.0000
     89 C           6.1445   -2.4060   -2.8529 C.3     1  UNL1        0.0000
     90 C           6.1838   -1.2570   -3.8652 C.3     1  UNL1        0.0000
     91 H          -6.5082    2.0335   -0.1544 H       1  UNL1        0.0000
     92 H          -7.2397    3.9670    1.1318 H       1  UNL1        0.0000
     93 H          -5.7379    4.9979    2.8342 H       1  UNL1        0.0000
     94 H          -3.4816    4.0047    3.2123 H       1  UNL1        0.0000
     95 H          -2.7576    2.0541    1.9404 H       1  UNL1        0.0000
     96 H           1.1627   -2.9965   -2.1804 H       1  UNL1        0.0000
     97 H           3.1521   -3.9259   -3.2474 H       1  UNL1        0.0000
     98 H           4.1103   -6.0934   -2.4687 H       1  UNL1        0.0000
     99 H           2.9739   -7.3174   -0.6184 H       1  UNL1        0.0000
    100 H           0.9758   -6.4040    0.4288 H       1  UNL1        0.0000
    101 H           3.3964    2.0437    0.2065 H       1  UNL1        0.0000
    102 H           4.7870    4.0129    0.6085 H       1  UNL1        0.0000
    103 H           7.1800    3.7555    1.2436 H       1  UNL1        0.0000
    104 H           8.1486    1.4661    1.4241 H       1  UNL1        0.0000
    105 H           1.9297    6.6674   -0.0556 H       1  UNL1        0.0000
    106 H           3.9275    7.3620   -1.2619 H       1  UNL1        0.0000
    107 H           5.1719    5.7404   -2.6924 H       1  UNL1        0.0000
    108 H           4.3289    3.3995   -2.8717 H       1  UNL1        0.0000
    109 H           2.3200    2.7126   -1.6862 H       1  UNL1        0.0000
    110 H          -4.1976   -1.5365    0.2987 H       1  UNL1        0.0000
    111 H          -5.1561    0.1208    2.6692 H       1  UNL1        0.0000
    112 H          -3.5257   -0.5067    2.4907 H       1  UNL1        0.0000
    113 H          -6.8394   -0.1128    0.8374 H       1  UNL1        0.0000
    114 H          -6.4566   -0.9455   -0.6632 H       1  UNL1        0.0000
    115 H          -4.8629   -2.0075    3.9276 H       1  UNL1        0.0000
    116 H          -4.3925   -2.8355    2.4502 H       1  UNL1        0.0000
    117 H          -7.7788   -2.4180    0.7731 H       1  UNL1        0.0000
    118 H          -6.1703   -3.0846    0.5221 H       1  UNL1        0.0000
    119 H          -6.7795   -3.3064    2.9131 H       1  UNL1        0.0000
    120 H          -7.1261   -1.5818    3.0123 H       1  UNL1        0.0000
    121 H          -5.7781    0.7762   -1.4019 H       1  UNL1        0.0000
    122 H          -3.2012    1.9548   -2.4645 H       1  UNL1        0.0000
    123 H          -4.4733    2.8638   -1.6644 H       1  UNL1        0.0000
    124 H          -3.3725   -0.6382   -2.5732 H       1  UNL1        0.0000
    125 H          -4.7492   -1.4396   -1.8431 H       1  UNL1        0.0000
    126 H          -4.7155    2.9815   -4.1382 H       1  UNL1        0.0000
    127 H          -6.1077    2.2028   -3.3975 H       1  UNL1        0.0000
    128 H          -5.0001   -1.3260   -4.3077 H       1  UNL1        0.0000
    129 H          -6.2828   -0.4298   -3.5017 H       1  UNL1        0.0000
    130 H          -5.3989    0.9100   -5.3955 H       1  UNL1        0.0000
    131 H          -3.7630    0.7762   -4.7559 H       1  UNL1        0.0000
    132 H          -0.5810    5.9669   -0.2196 H       1  UNL1        0.0000
    133 H          -0.4343    4.1543   -2.6631 H       1  UNL1        0.0000
    134 H           0.5204    5.6132   -2.4496 H       1  UNL1        0.0000
    135 H          -1.9492    3.3335   -0.9202 H       1  UNL1        0.0000
    136 H          -2.0438    4.0560    0.6668 H       1  UNL1        0.0000
    137 H          -1.4828    6.1044   -3.8180 H       1  UNL1        0.0000
    138 H          -1.4939    7.0134   -2.3132 H       1  UNL1        0.0000
    139 H          -4.0262    4.6960   -0.6192 H       1  UNL1        0.0000
    140 H          -3.0491    6.1245   -0.3267 H       1  UNL1        0.0000
    141 H          -3.7534    6.1055   -2.7119 H       1  UNL1        0.0000
    142 H          -3.1025    4.4821   -2.9102 H       1  UNL1        0.0000
    143 H           1.0633    5.8419    1.4142 H       1  UNL1        0.0000
    144 H          -0.7354    3.7136    2.5921 H       1  UNL1        0.0000
    145 H          -1.2334    5.2867    1.9745 H       1  UNL1        0.0000
    146 H           1.8813    3.0866    2.4030 H       1  UNL1        0.0000
    147 H           2.9359    4.2466    1.6180 H       1  UNL1        0.0000
    148 H          -1.0119    5.3324    4.4339 H       1  UNL1        0.0000
    149 H           0.0821    6.4675    3.6550 H       1  UNL1        0.0000
    150 H           3.1773    4.3375    4.0867 H       1  UNL1        0.0000
    151 H           2.6003    5.8725    3.4466 H       1  UNL1        0.0000
    152 H           1.2767    5.2573    5.4623 H       1  UNL1        0.0000
    153 H           0.8563    3.7088    4.7336 H       1  UNL1        0.0000
    154 H          -1.0257   -4.1772   -2.2140 H       1  UNL1        0.0000
    155 H          -2.4085   -6.2149   -0.4231 H       1  UNL1        0.0000
    156 H          -0.8989   -6.5127   -1.2816 H       1  UNL1        0.0000
    157 H          -3.4713   -3.8702   -0.4364 H       1  UNL1        0.0000
    158 H          -2.6441   -2.5589   -1.2671 H       1  UNL1        0.0000
    159 H          -2.8480   -7.3690   -2.5699 H       1  UNL1        0.0000
    160 H          -2.0000   -6.1039   -3.4518 H       1  UNL1        0.0000
    161 H          -4.5647   -3.4137   -2.5986 H       1  UNL1        0.0000
    162 H          -3.0465   -3.6553   -3.4500 H       1  UNL1        0.0000
    163 H          -4.4420   -5.7081   -3.6018 H       1  UNL1        0.0000
    164 H          -4.5866   -5.7649   -1.8484 H       1  UNL1        0.0000
    165 H          -0.8157   -5.7569    1.0589 H       1  UNL1        0.0000
    166 H           0.4790   -3.4575    2.5650 H       1  UNL1        0.0000
    167 H           1.3707   -4.7871    1.8682 H       1  UNL1        0.0000
    168 H          -2.0282   -3.1750    2.0925 H       1  UNL1        0.0000
    169 H          -2.8832   -4.4182    1.1934 H       1  UNL1        0.0000
    170 H           0.9520   -5.2171    4.2576 H       1  UNL1        0.0000
    171 H           0.0898   -6.4070    3.2889 H       1  UNL1        0.0000
    172 H          -3.2815   -4.6751    3.6116 H       1  UNL1        0.0000
    173 H          -2.4973   -6.0887    2.9186 H       1  UNL1        0.0000
    174 H          -1.4169   -5.5350    5.0703 H       1  UNL1        0.0000
    175 H          -1.1208   -3.8834    4.5328 H       1  UNL1        0.0000
    176 H           5.4430   -2.0293    1.0713 H       1  UNL1        0.0000
    177 H           3.1342   -1.1766    2.8376 H       1  UNL1        0.0000
    178 H           4.7283   -0.4440    2.8640 H       1  UNL1        0.0000
    179 H           2.5275   -2.8639    1.0371 H       1  UNL1        0.0000
    180 H           3.7068   -3.3616   -0.1623 H       1  UNL1        0.0000
    181 H           4.5423   -2.2048    4.6151 H       1  UNL1        0.0000
    182 H           5.7601   -2.6443    3.4234 H       1  UNL1        0.0000
    183 H           3.4867   -5.0986    1.5840 H       1  UNL1        0.0000
    184 H           5.1070   -4.4270    1.5647 H       1  UNL1        0.0000
    185 H           4.3313   -4.6169    3.9116 H       1  UNL1        0.0000
    186 H           2.8845   -3.6866    3.5349 H       1  UNL1        0.0000
    187 H           3.7941   -1.7330   -1.7031 H       1  UNL1        0.0000
    188 H           5.5522    0.7318   -2.0330 H       1  UNL1        0.0000
    189 H           3.8109    0.7174   -2.2738 H       1  UNL1        0.0000
    190 H           6.7487   -1.2952   -1.1037 H       1  UNL1        0.0000
    191 H           5.8603   -2.7763   -0.7554 H       1  UNL1        0.0000
    192 H           4.9860    0.4599   -4.4454 H       1  UNL1        0.0000
    193 H           4.0484   -0.9833   -4.0763 H       1  UNL1        0.0000
    194 H           7.0785   -2.9790   -2.8885 H       1  UNL1        0.0000
    195 H           5.3414   -3.1033   -3.1271 H       1  UNL1        0.0000
    196 H           6.3050   -1.6479   -4.8824 H       1  UNL1        0.0000
    197 H           7.0625   -0.6292   -3.6618 H       1  UNL1        0.0000
    198 H           6.7706   -0.4996    0.9617 H       1  UNL1        0.0000
@<TRIPOS>BOND
     1     2    10    1
     2     2     8    1
     3     2    14    1
     4     2    12    1
     5     2     1    1
     6     3    15    1
     7     3     7    1
     8     4    36    1
     9     4    13    1
    10     5     9    1
    11     6    29    1
    12     6    11    1
    13     7     1    1
    14     8     3    1
    15     9     1    1
    16    10     5    1
    17    11     1    1
    18    12     6    1
    19    13     1    1
    20    14     4    1
    21    15    43    1
    22    15    16    1
    23    16    21   ar
    24    17    16   ar
    25    17    18   ar
    26    18    19   ar
    27    19    20   ar
    28    19    93    1
    29    20    94    1
    30    21    95    1
    31    21    20   ar
    32    22     5    1
    33    22    73    1
    34    23    28   ar
    35    23    22    1
    36    24    23   ar
    37    25    26   ar
    38    25    24   ar
    39    26    27   ar
    40    27    99    1
    41    27    28   ar
    42    28   100    1
    43    29    30    1
    44    29    79    1
    45    30    35   ar
    46    31    30   ar
    47    31    32   ar
    48    32    33   ar
    49    33    34   ar
    50    33   103    1
    51    34   104    1
    52    35   198    1
    53    35    34   ar
    54    36    61    1
    55    37    38   ar
    56    37    36    1
    57    38   105    1
    58    39   106    1
    59    39    38   ar
    60    40    39   ar
    61    41    40   ar
    62    41    42   ar
    63    42    37   ar
    64    43    44    1
    65    44   112    1
    66    44   111    1
    67    44    46    1
    68    45    43    1
    69    45   113    1
    70    45    47    1
    71    46   115    1
    72    47    48    1
    73    48    46    1
    74    48   119    1
    75    48   120    1
    76    49   121    1
    77    49    15    1
    78    50   123    1
    79    50    49    1
    80    51   125    1
    81    51    49    1
    82    52   127    1
    83    52    50    1
    84    53   129    1
    85    53    51    1
    86    54    53    1
    87    54    52    1
    88    55    57    1
    89    55   132    1
    90    55    36    1
    91    56    55    1
    92    57   136    1
    93    58    60    1
    94    58   138    1
    95    58    56    1
    96    59   139    1
    97    59    57    1
    98    59   140    1
    99    60    59    1
   100    61    63    1
   101    61    62    1
   102    62   144    1
   103    62    64    1
   104    63   146    1
   105    63    65    1
   106    64   148    1
   107    64    66    1
   108    65   150    1
   109    65    66    1
   110    66   153    1
   111    66   152    1
   112    67    22    1
   113    68   156    1
   114    68    67    1
   115    68   155    1
   116    69    67    1
   117    69   158    1
   118    69   157    1
   119    70    68    1
   120    71    69    1
   121    72    71    1
   122    72    70    1
   123    72   164    1
   124    73    75    1
   125    73    74    1
   126    74   166    1
   127    74    76    1
   128    75   168    1
   129    75    77    1
   130    76    78    1
   131    76   170    1
   132    77   172    1
   133    77    78    1
   134    78   175    1
   135    78   174    1
   136    79    80    1
   137    80   177    1
   138    80   178    1
   139    80    82    1
   140    81   179    1
   141    81    79    1
   142    81    83    1
   143    82   181    1
   144    83    84    1
   145    84   186    1
   146    84    82    1
   147    84   185    1
   148    85    29    1
   149    86   189    1
   150    86   188    1
   151    86    85    1
   152    87    85    1
   153    87   190    1
   154    87   191    1
   155    88    86    1
   156    89    87    1
   157    90    88    1
   158    90   197    1
   159    90    89    1
   160    91    17    1
   161    92    18    1
   162    96    24    1
   163    97    25    1
   164    98    26    1
   165   101    31    1
   166   102    32    1
   167   107    40    1
   168   108    41    1
   169   109    42    1
   170   110    43    1
   171   114    45    1
   172   116    46    1
   173   117    47    1
   174   118    47    1
   175   122    50    1
   176   124    51    1
   177   126    52    1
   178   128    53    1
   179   130    54    1
   180   131    54    1
   181   133    56    1
   182   134    56    1
   183   135    57    1
   184   137    58    1
   185   141    60    1
   186   142    60    1
   187   143    61    1
   188   145    62    1
   189   147    63    1
   190   149    64    1
   191   151    65    1
   192   154    67    1
   193   159    70    1
   194   160    70    1
   195   161    71    1
   196   162    71    1
   197   163    72    1
   198   165    73    1
   199   167    74    1
   200   169    75    1
   201   171    76    1
   202   173    77    1
   203   176    79    1
   204   180    81    1
   205   182    82    1
   206   183    83    1
   207   184    83    1
   208   187    85    1
   209   192    88    1
   210   193    88    1
   211   194    89    1
   212   195    89    1
   213   196    90    1
