# Molecule Name
# Created by GaussView 6.0.16
#

#
#

@<TRIPOS>MOLECULE
Molecule Name
29 29
SMALL
NO_CHARGES


@<TRIPOS>ATOM
1 S1     0.0436    -1.8045     2.0391 S
2 Si2     1.6941    -2.4783     0.7695 Si
3 Si3     0.0368     0.3525     2.3818 Si
4 Si4    -0.6029     1.5498     0.4602 Si
5 Si5     0.3415     3.6756     0.2102 Si
6 Si6     2.3082     0.9289    -0.8563 Si
7 Si7     1.7321    -1.3054    -1.2449 Si
8 Si8     0.1486     4.5422    -1.9656 Si
9 Si9     2.9574     2.1497    -2.7385 Si
10 Si10     0.9663     3.0302    -3.5479 Si
11 F11     1.6353     0.8507     2.8909 F
12 F12    -1.1257     0.7137     3.6390 F
13 F13    -2.3435     1.7286     0.4863 F
14 F14    -0.1721     0.5959    -0.9423 F
15 F15     2.0382     3.5406     0.6169 F
16 F16    -0.4497     4.7924     1.3008 F
17 F17    -1.5198     4.8954    -2.3582 F
18 F18     1.0913     6.0159    -2.0110 F
19 F19    -0.1535     1.7021    -3.7591 F
20 F20     1.1828     3.8526    -5.0774 F
21 F21     4.0952     3.4178    -2.3387 F
22 F22     3.6933     1.0875    -3.9187 F
23 F23     0.9297     1.7302    -0.1351 F
24 F24     3.6256     0.9601     0.2952 F
25 F25     0.1489    -1.4073    -1.9835 F
26 F26     2.9253    -2.0011    -2.3194 F
27 F27     3.2214    -2.2299     1.5868 F
28 F28     1.4671    -4.1837     0.4490 F
29 H29    -0.8525    -2.6157     2.5441 H
@<TRIPOS>BOND
1 1 2 1
2 1 3 1
3 1 29 1
4 2 7 1
5 2 27 1
6 2 28 1
7 3 4 1
8 3 11 1
9 3 12 1
10 4 5 1
11 4 13 1
12 4 14 1
13 5 8 1
14 5 15 1
15 5 16 1
16 6 7 1
17 6 9 1
18 6 23 1
19 6 24 1
20 7 25 1
21 7 26 1
22 8 10 1
23 8 17 1
24 8 18 1
25 9 10 1
26 9 21 1
27 9 22 1
28 10 19 1
29 10 20 1
