# Molecule Name
# Created by GaussView 6.0.16
#

#
#

@<TRIPOS>MOLECULE
Molecule Name
28 27
SMALL
NO_CHARGES


@<TRIPOS>ATOM
1 S1    -0.1420    -0.3523     0.0000 S
2 Si2     0.9442    -2.2424     0.0000 Si
3 Si3    -2.3220    -0.3523    -0.0037 Si
4 Si4    -0.5799    -4.0179    -0.0000 Si
5 Si5    -3.1020    -2.5584    -0.0074 Si
6 Si6    -5.4420    -2.5584    -0.0134 Si
7 Si7     0.5861    -6.0467     0.0012 Si
8 Si8    -0.9380    -7.8223     0.0009 Si
9 Si9    -6.2220    -4.7646    -0.0164 Si
10 F10    -2.9078     0.4711     1.4250 F
11 F11    -2.5224    -3.3845     1.4223 F
12 F12    -1.5864    -3.9228     1.4284 F
13 F13     1.9501    -2.3370     1.4289 F
14 F14    -2.5150    -3.3823    -1.4354 F
15 F15    -1.5853    -3.9237    -1.4293 F
16 F16    -2.9030     0.4742    -1.4326 F
17 F17     1.9502    -2.3370    -1.4288 F
18 F18     1.5928    -6.1418    -1.4271 F
19 F19     1.5912    -6.1411     1.4307 F
20 F20    -1.9423    -7.7286    -1.4291 F
21 F21    -1.9455    -7.7266     1.4286 F
22 F22    -0.0661    -9.3396     0.0029 F
23 F23    -5.6428    -5.5901     1.4139 F
24 F24    -5.6346    -5.5891    -1.4439 F
25 F25    -7.9720    -4.7646    -0.0214 F
26 F26    -6.0291    -1.7341     1.4143 F
27 F27    -6.0217    -1.7329    -1.4434 F
28 H28     0.4324     0.6472     0.0019 H
@<TRIPOS>BOND
1 1 2 1
2 1 3 1
3 1 28 1
4 2 4 1
5 2 13 1
6 2 17 1
7 3 5 1
8 3 10 1
9 3 16 1
10 4 7 1
11 4 12 1
12 4 15 1
13 5 6 1
14 5 11 1
15 5 14 1
16 6 9 1
17 6 26 1
18 6 27 1
19 7 8 1
20 7 18 1
21 7 19 1
22 8 20 1
23 8 21 1
24 8 22 1
25 9 23 1
26 9 24 1
27 9 25 1
