@<TRIPOS>MOLECULE
S_SiI2_12_cyclic
38   38    1
SMALL
USER_CHARGES


@<TRIPOS>ATOM
      1 Si1         0.5733   -1.8388    1.2852 Si        1 ****        0.0000 
      2 I2          0.7801   -4.2439    1.6407 I         1 ****        0.0000 
      3 I3          1.6181   -0.6508    3.1428 I         1 ****        0.0000 
      4 Si4        -1.8671    0.8526    1.4753 Si        1 ****        0.0000 
      5 I5         -1.3306    1.4022    3.7913 I         1 ****        0.0000 
      6 I6         -4.2175    1.3331    1.0298 I         1 ****        0.0000 
      7 Si7        -0.5402    2.1959    0.0820 Si        1 ****        0.0000 
      8 Si8        -0.0814    4.3539    0.8895 Si        1 ****        0.0000 
      9 Si9         1.3537    0.9800   -1.1692 Si        1 ****        0.0000 
     10 Si10        1.6198   -1.2943   -0.7324 Si        1 ****        0.0000 
     11 S11        -1.5327   -1.2888    1.1688 S.3       1 ****        0.0000 
     12 I12         0.5925   -2.5741   -2.5380 I         1 ****        0.0000 
     13 I13         3.9945   -1.8382   -0.5970 I         1 ****        0.0000 
     14 Si14        0.1297    5.8979   -0.8642 Si        1 ****        0.0000 
     15 Si15        2.9344    2.1063   -2.4653 Si        1 ****        0.0000 
     16 Si16        1.9920    5.3909   -2.1868 Si        1 ****        0.0000 
     17 Si17        2.7631    2.1331   -4.7995 Si        1 ****        0.0000 
     18 I18        -1.9345    5.0429    2.3195 I         1 ****        0.0000 
     19 I19         1.9885    4.3224    2.1811 I         1 ****        0.0000 
     20 I20         0.4243    8.1356    0.0629 I         1 ****        0.0000 
     21 I21        -1.8935    5.8352   -2.2267 I         1 ****        0.0000 
     22 I22         4.2122    0.4274   -5.7712 I         1 ****        0.0000 
     23 I23         0.4584    1.7050   -5.4769 I         1 ****        0.0000 
     24 Si24        1.9500    5.7776   -4.4952 Si        1 ****        0.0000 
     25 I25         2.6488    8.0603   -4.9998 I         1 ****        0.0000 
     26 I26        -0.3189    5.4287   -5.3222 I         1 ****        0.0000 
     27 Si27        3.4068    4.2586   -5.5069 Si        1 ****        0.0000 
     28 I28         5.6995    4.6911   -4.7927 I         1 ****        0.0000 
     29 I29         3.2787    4.4500   -7.9360 I         1 ****        0.0000 
     30 I30         3.8763    6.6507   -1.2836 I         1 ****        0.0000 
     31 I31         2.4747    3.0207   -1.8659 I         1 ****        0.0000 
     32 I32         2.9430    4.4304   -1.7224 I         1 ****        0.0000 
     33 I33         5.1144    1.1560   -1.9194 I         1 ****        0.0000 
     34 I34        -0.8089    1.2572   -2.2647 I         1 ****        0.0000 
     35 I35         1.2398    2.1210    0.9846 I         1 ****        0.0000 
     36 I36         1.5838    1.0512   -0.2810 I         1 ****        0.0000 
     37 I37        -1.6713    2.4122   -2.0691 I         1 ****        0.0000 
     38 H38        -2.4950   -2.1477    0.9400 H         1 ****        0.0000 
@<TRIPOS>BOND
     1    1    2 1    
     2    1    3 1    
     3    1   10 1    
     4    1   11 1    
     5    4    5 1    
     6    4    6 1    
     7    4    7 1    
     8    4   11 1    
     9    7    8 1    
    10    7   36 1    
    11    7   37 1    
    12    8   14 1    
    13    8   18 1    
    14    8   19 1    
    15    9   10 1    
    16    9   15 1    
    17    9   34 1    
    18    9   35 1    
    19   10   12 1    
    20   10   13 1    
    21   11   38 1    
    22   14   16 1    
    23   14   20 1    
    24   14   21 1    
    25   15   17 1    
    26   15   32 1    
    27   15   33 1    
    28   16   24 1    
    29   16   30 1    
    30   16   31 1    
    31   17   22 1    
    32   17   23 1    
    33   17   27 1    
    34   24   25 1    
    35   24   26 1    
    36   24   27 1    
    37   27   28 1    
    38   27   29 1    
@<TRIPOS>SUBSTRUCTURE
     1 ****        1 GROUP             0       ****    0 ROOT    
