@<TRIPOS>MOLECULE
S_SiI2_10_cyclic
32   32    1
SMALL
USER_CHARGES


@<TRIPOS>ATOM
      1 Si1         1.2804   -2.3864    0.5503 Si        1 ****        0.0000 
      2 I2          0.7522   -4.6603   -0.1595 I         1 ****        0.0000 
      3 I3          3.3667   -2.3472    1.8150 I         1 ****        0.0000 
      4 Si4         0.1460    0.3166    2.4261 Si        1 ****        0.0000 
      5 I5          2.5136    0.4789    2.9933 I         1 ****        0.0000 
      6 I6         -1.1614    1.1923    4.2909 I         1 ****        0.0000 
      7 Si7        -0.3693    1.4489    0.4855 Si        1 ****        0.0000 
      8 Si8         0.6399    3.5206    0.4014 Si        1 ****        0.0000 
      9 I9         -0.0070    5.0770    2.1657 I         1 ****        0.0000 
     10 I10         3.0522    3.1755    0.5257 I         1 ****        0.0000 
     11 Si11        2.1708    1.1845   -0.9649 Si        1 ****        0.0000 
     12 Si12        1.6432   -1.0791   -1.4074 Si        1 ****        0.0000 
     13 S13        -0.3076   -1.7303    1.9247 S.3       1 ****        0.0000 
     14 I14        -0.3263   -1.1367   -2.8467 I         1 ****        0.0000 
     15 I15         3.5466   -2.0941   -2.5477 I         1 ****        0.0000 
     16 Si16        0.0214    4.2661   -1.6943 Si        1 ****        0.0000 
     17 I17        -2.2227    5.2225   -1.6390 I         1 ****        0.0000 
     18 Si18        3.1580    2.2405   -2.8582 Si        1 ****        0.0000 
     19 I19         5.2553    1.0756   -3.3032 I         1 ****        0.0000 
     20 I20         0.1365    2.3414   -0.2744 I         1 ****        0.0000 
     21 I21         3.8247    1.2798    0.8266 I         1 ****        0.0000 
     22 I22         0.5262    0.1821   -1.3978 I         1 ****        0.0000 
     23 I23        -2.7938    1.6340    0.2822 I         1 ****        0.0000 
     24 H24        -0.2898   -2.4945    2.9885 H         1 ****        0.0000 
     25 I25         1.7204    2.1135   -4.8256 I         1 ****        0.0000 
     26 I26         0.0597    2.3624   -3.2201 I         1 ****        0.0000 
     27 Si27        1.6077    5.7307   -2.4897 Si        1 ****        0.0000 
     28 I28         1.0361    6.2459   -4.8052 I         1 ****        0.0000 
     29 I29         1.7795    7.8215   -1.2436 I         1 ****        0.0000 
     30 Si30        3.6041    4.5097   -2.3632 Si        1 ****        0.0000 
     31 I31         4.5459    4.5557   -0.1128 I         1 ****        0.0000 
     32 I32         5.1807    5.5188   -3.9284 I         1 ****        0.0000 
@<TRIPOS>BOND
     1    1    2 1    
     2    1    3 1    
     3    1   12 1    
     4    1   13 1    
     5    4    5 1    
     6    4    6 1    
     7    4    7 1    
     8    4   13 1    
     9    7    8 1    
    10    7   22 1    
    11    7   23 1    
    12    8    9 1    
    13    8   10 1    
    14    8   16 1    
    15   11   12 1    
    16   11   18 1    
    17   11   20 1    
    18   11   21 1    
    19   12   14 1    
    20   12   15 1    
    21   13   24 1    
    22   16   17 1    
    23   16   26 1    
    24   16   27 1    
    25   18   19 1    
    26   18   25 1    
    27   18   30 1    
    28   27   28 1    
    29   27   29 1    
    30   27   30 1    
    31   30   31 1    
    32   30   32 1    
@<TRIPOS>SUBSTRUCTURE
     1 ****        1 GROUP             0       ****    0 ROOT    
