# Molecule Name
# Created by GaussView 6.0.16
#

#
#

@<TRIPOS>MOLECULE
Molecule Name
40 39
SMALL
NO_CHARGES


@<TRIPOS>ATOM
1 S1    -0.1420    -0.3523     0.0000 S
2 Si2     0.9442    -2.2424     0.0000 Si
3 Si3    -2.3220    -0.3523    -0.0037 Si
4 Si4    -0.5799    -4.0179    -0.0000 Si
5 Si5    -3.1020    -2.5584    -0.0074 Si
6 Si6    -5.4420    -2.5584    -0.0134 Si
7 Si7     0.5861    -6.0467     0.0012 Si
8 Si8    -0.9380    -7.8223     0.0009 Si
9 Si9    -6.2220    -4.7646    -0.0164 Si
10 Si10    -2.2852    -7.6943     1.9099 Si
11 Si11    -5.4475    -5.8683     1.8961 Si
12 Si12    -6.9857    -5.5856     3.6366 Si
13 Si13    -2.0786    -9.6715     3.1443 Si
14 F14    -2.9030     0.4742    -1.4326 F
15 F15    -2.9078     0.4711     1.4250 F
16 F16     1.9502    -2.3370    -1.4288 F
17 F17     1.9501    -2.3370     1.4289 F
18 F18    -1.5853    -3.9237    -1.4293 F
19 F19    -1.5864    -3.9228     1.4284 F
20 F20    -2.5150    -3.3823    -1.4354 F
21 F21    -2.5224    -3.3845     1.4223 F
22 F22     1.5912    -6.1411     1.4307 F
23 F23     1.5928    -6.1418    -1.4271 F
24 F24    -6.0217    -1.7329    -1.4434 F
25 F25    -6.0291    -1.7341     1.4143 F
26 F26    -7.9720    -4.7646    -0.0214 F
27 F27    -5.6346    -5.5891    -1.4439 F
28 F28    -6.5808    -4.1455     4.5447 F
29 F29    -8.5960    -5.4220     2.9712 F
30 F30    -6.9307    -6.9777     4.6957 F
31 F31    -5.2640    -7.5741     1.5511 F
32 F32    -3.9013    -5.1994     2.3697 F
33 F33    -1.9423    -7.7286    -1.4291 F
34 F34    -0.0661    -9.3396     0.0029 F
35 F35    -1.7777    -6.3377     2.8921 F
36 F36    -3.9546    -7.4766     1.4323 F
37 F37    -2.7348    -9.4290     4.7484 F
38 F38    -2.9579   -10.9545     2.3423 F
39 F39    -0.3887   -10.1097     3.2655 F
40 H40     0.5141     0.7816     0.0022 H
@<TRIPOS>BOND
1 1 2 1
2 1 3 1
3 1 40 1
4 2 4 1
5 2 16 1
6 2 17 1
7 3 5 1
8 3 14 1
9 3 15 1
10 4 7 1
11 4 18 1
12 4 19 1
13 5 6 1
14 5 20 1
15 5 21 1
16 6 9 1
17 6 24 1
18 6 25 1
19 7 8 1
20 7 22 1
21 7 23 1
22 8 10 1
23 8 33 1
24 8 34 1
25 9 11 1
26 9 26 1
27 9 27 1
28 10 13 1
29 10 35 1
30 10 36 1
31 11 12 1
32 11 31 1
33 11 32 1
34 12 28 1
35 12 29 1
36 12 30 1
37 13 37 1
38 13 38 1
39 13 39 1
