# Molecule Name
# Created by GaussView 6.0.16
#

#
#

@<TRIPOS>MOLECULE
Molecule Name
32 32
SMALL
NO_CHARGES


@<TRIPOS>ATOM
1 S1    -0.3076    -1.7303     1.9247 S
2 Si2     1.2804    -2.3864     0.5503 Si
3 Si3     0.1460     0.3166     2.4261 Si
4 Si4    -0.3693     1.4489     0.4855 Si
5 Si5     0.6399     3.5206     0.4014 Si
6 Si6     2.1708     1.1845    -0.9649 Si
7 Si7     1.6432    -1.0791    -1.4074 Si
8 Si8     0.0214     4.2661    -1.6943 Si
9 Si9     3.1580     2.2405    -2.8582 Si
10 Si10     1.6077     5.7307    -2.4897 Si
11 Si11     3.6041     4.5097    -2.3632 Si
12 F12     1.8441     0.4330     2.8329 F
13 F13    -0.7917     0.9447     3.7635 F
14 F14     0.9016    -4.0173     0.0412 F
15 F15     2.7767    -2.3583     1.4573 F
16 F16     0.2307    -1.1204    -2.4397 F
17 F17     3.0083    -1.8071    -2.2253 F
18 F18     4.6622     1.4050    -3.1774 F
19 F19     2.1269     2.1494    -4.2693 F
20 F20     4.7349     5.2334    -3.4857 F
21 F21     4.2796     4.5427    -0.7492 F
22 F22     1.1977     6.1002    -4.1504 F
23 F23     1.7309     7.2302    -1.5960 F
24 F24    -1.5881     4.9520    -1.6547 F
25 F25     0.0489     2.9007    -2.7886 F
26 F26     2.3700     3.2731     0.4906 F
27 F27     0.1760     4.6368     1.6668 F
28 F28     0.7118     2.0143    -0.4697 F
29 F29     0.2730     0.5403    -0.8652 F
30 F30     3.3570     1.2528     0.3200 F
31 F31    -2.1082     1.5816     0.3397 F
32 H32    -0.2898    -2.4945     2.9885 H
@<TRIPOS>BOND
1 1 2 1
2 1 3 1
3 1 32 1
4 2 7 1
5 2 14 1
6 2 15 1
7 3 4 1
8 3 12 1
9 3 13 1
10 4 5 1
11 4 29 1
12 4 31 1
13 5 8 1
14 5 26 1
15 5 27 1
16 6 7 1
17 6 9 1
18 6 28 1
19 6 30 1
20 7 16 1
21 7 17 1
22 8 10 1
23 8 24 1
24 8 25 1
25 9 11 1
26 9 18 1
27 9 19 1
28 10 11 1
29 10 22 1
30 10 23 1
31 11 20 1
32 11 21 1
