# Title Card Required
# Created by GaussView 6.0.16
#

#
#

@<TRIPOS>MOLECULE
Molecule Name
28 27
SMALL
NO_CHARGES


@<TRIPOS>ATOM
1 S1    -0.1420    -0.3523     0.0000 S
2 Si2     0.9442    -2.2424     0.0000 Si
3 H3     1.7892    -2.3219     1.2003 H
4 H4     1.7892    -2.3219    -1.2002 H
5 Si5    -2.3220    -0.3523    -0.0037 Si
6 H6    -2.8100     0.3420    -1.2040 H
7 H7    -2.8141     0.3394     1.1965 H
8 Si8    -0.5799    -4.0179    -0.0000 Si
9 H9    -1.4244    -3.9388    -1.2006 H
10 H10    -1.4254    -3.9380     1.1999 H
11 Si11    -3.1020    -2.5584    -0.0074 Si
12 H12    -2.6089    -3.2505    -1.2069 H
13 H13    -2.6151    -3.2523     1.1936 H
14 Si14    -5.4420    -2.5584    -0.0134 Si
15 H15    -5.9289    -1.8650    -1.2146 H
16 H16    -5.9351    -1.8660     1.1858 H
17 Si17     0.5861    -6.0467     0.0012 Si
18 H18     1.4304    -6.1260     1.2020 H
19 H19     1.4317    -6.1266    -1.1985 H
20 Si20    -0.9380    -7.8223     0.0009 Si
21 H21    -0.2056    -9.0968     0.0026 H
22 H22    -1.7843    -7.7419     1.2001 H
23 H23    -1.7817    -7.7436    -1.2004 H
24 Si24    -6.2220    -4.7646    -0.0164 Si
25 H25    -5.7355    -5.4580     1.1850 H
26 H26    -7.6920    -4.7646    -0.0206 H
27 H27    -5.7286    -5.4572    -1.2155 H
28 H28     0.4324     0.6472     0.0019 H
@<TRIPOS>BOND
1 1 2 1
2 1 5 1
3 1 28 1
4 2 3 1
5 2 4 1
6 2 8 1
7 5 6 1
8 5 7 1
9 5 11 1
10 8 9 1
11 8 10 1
12 8 17 1
13 11 12 1
14 11 13 1
15 11 14 1
16 14 15 1
17 14 16 1
18 14 24 1
19 17 18 1
20 17 19 1
21 17 20 1
22 20 21 1
23 20 22 1
24 20 23 1
25 24 25 1
26 24 26 1
27 24 27 1
