# Molecule Name
# Created by GaussView 6.0.16
#

#
#

@<TRIPOS>MOLECULE
Molecule Name
34 33
SMALL
NO_CHARGES


@<TRIPOS>ATOM
1 S1    -0.1420    -0.3523     0.0000 S
2 Si2     0.9442    -2.2424     0.0000 Si
3 Si3    -2.3220    -0.3523    -0.0037 Si
4 Si4    -0.5799    -4.0179    -0.0000 Si
5 Si5    -3.1020    -2.5584    -0.0074 Si
6 Si6    -5.4420    -2.5584    -0.0134 Si
7 Si7     0.5861    -6.0467     0.0012 Si
8 Si8    -0.9380    -7.8223     0.0009 Si
9 Si9    -6.2220    -4.7646    -0.0164 Si
10 Si10    -2.2852    -7.6943     1.9099 Si
11 Si11    -5.4475    -5.8683     1.8961 Si
12 F12    -2.9078     0.4711     1.4250 F
13 F13     1.9501    -2.3370     1.4289 F
14 F14     1.9502    -2.3370    -1.4288 F
15 F15    -2.9030     0.4742    -1.4326 F
16 F16    -2.5150    -3.3823    -1.4354 F
17 F17    -2.5224    -3.3845     1.4223 F
18 F18    -1.5853    -3.9237    -1.4293 F
19 F19    -1.5864    -3.9228     1.4284 F
20 F20     1.5928    -6.1418    -1.4271 F
21 F21     1.5912    -6.1411     1.4307 F
22 F22    -1.9423    -7.7286    -1.4291 F
23 F23    -0.0661    -9.3396     0.0029 F
24 F24    -2.1307    -9.1729     2.8331 F
25 F25    -1.7777    -6.3377     2.8921 F
26 F26    -3.9546    -7.4766     1.4323 F
27 F27    -5.2640    -7.5741     1.5511 F
28 F28    -3.9013    -5.1994     2.3697 F
29 F29    -6.5979    -5.6569     3.1978 F
30 F30    -5.6346    -5.5891    -1.4439 F
31 F31    -7.9720    -4.7646    -0.0214 F
32 F32    -6.0291    -1.7341     1.4143 F
33 F33    -6.0217    -1.7329    -1.4434 F
34 H34     0.5141     0.7816     0.0022 H
@<TRIPOS>BOND
1 1 2 1
2 1 3 1
3 1 34 1
4 2 4 1
5 2 13 1
6 2 14 1
7 3 5 1
8 3 12 1
9 3 15 1
10 4 7 1
11 4 18 1
12 4 19 1
13 5 6 1
14 5 16 1
15 5 17 1
16 6 9 1
17 6 32 1
18 6 33 1
19 7 8 1
20 7 20 1
21 7 21 1
22 8 10 1
23 8 22 1
24 8 23 1
25 9 11 1
26 9 30 1
27 9 31 1
28 10 24 1
29 10 25 1
30 10 26 1
31 11 27 1
32 11 28 1
33 11 29 1
