@<TRIPOS>MOLECULE
RhRh_pFPhMe2-O2C4_20kcal_10_sp
 94 101 0 0 0
SMALL
GASTEIGER

@<TRIPOS>ATOM
      1 Rh         -0.7998   -0.9957   -1.4027 Rh      1  UNL1        0.0000
      2 Rh         -0.4477   -0.6370    0.9318 Rh      1  UNL1        0.0000
      3 C           1.5936    0.5058   -0.7872 C.3     1  UNL1        0.0000
      4 C           0.8202   -3.0206   -0.1145 C.3     1  UNL1        0.0000
      5 C          -2.8863   -2.0487    0.3106 C.3     1  UNL1        0.0000
      6 C          -1.9072    1.4776   -0.3891 C.3     1  UNL1        0.0000
      7 O           0.2931   -2.7303   -1.2333 O.3     1  UNL1        0.0000
      8 O           0.6617   -2.3701    0.9687 O.3     1  UNL1        0.0000
      9 O           0.9417    0.0135   -1.7659 O.3     1  UNL1        0.0000
     10 O           1.2441    0.4283    0.4321 O.3     1  UNL1        0.0000
     11 O          -1.8057    0.8004   -1.4606 O.3     1  UNL1        0.0000
     12 O          -1.5609    1.0770    0.7694 O.3     1  UNL1        0.0000
     13 O          -2.5469   -1.9752   -0.9141 O.3     1  UNL1        0.0000
     14 O          -2.1757   -1.6828    1.2995 O.3     1  UNL1        0.0000
     15 F           5.4341    3.5450    3.3499 F       1  UNL1        0.0000
     16 F           2.3560    6.0246   -0.4673 F       1  UNL1        0.0000
     17 F          -7.4718    2.1730    0.6341 F       1  UNL1        0.0000
     18 F           7.0655   -2.1830   -0.0156 F       1  UNL1        0.0000
     19 C           1.7635   -4.2337   -0.0656 C.3     1  UNL1        0.0000
     20 C           3.1964   -3.6633   -0.0822 C.ar    1  UNL1        0.0000
     21 C           4.0720   -3.8865   -1.1510 C.ar    1  UNL1        0.0000
     22 C           5.3769   -3.3906   -1.1388 C.ar    1  UNL1        0.0000
     23 C           5.8047   -2.6599   -0.0406 C.ar    1  UNL1        0.0000
     24 C           4.9625   -2.4044    1.0353 C.ar    1  UNL1        0.0000
     25 C           3.6621   -2.9013    1.0021 C.ar    1  UNL1        0.0000
     26 C           2.9113    1.2075   -1.1623 C.3     1  UNL1        0.0000
     27 C           3.5722    1.8603    0.0519 C.ar    1  UNL1        0.0000
     28 C           3.9204    1.0800    1.1660 C.ar    1  UNL1        0.0000
     29 C           4.5458    1.6361    2.2767 C.ar    1  UNL1        0.0000
     30 C           4.8306    2.9976    2.2722 C.ar    1  UNL1        0.0000
     31 C           4.5089    3.8025    1.1912 C.ar    1  UNL1        0.0000
     32 C           3.8838    3.2222    0.0849 C.ar    1  UNL1        0.0000
     33 C          -2.4115    2.9234   -0.4985 C.3     1  UNL1        0.0000
     34 C          -1.1317    3.7875   -0.5070 C.ar    1  UNL1        0.0000
     35 C          -0.2546    3.7442    0.5897 C.ar    1  UNL1        0.0000
     36 C           0.9108    4.5018    0.6195 C.ar    1  UNL1        0.0000
     37 C           1.2033    5.3127   -0.4693 C.ar    1  UNL1        0.0000
     38 C           0.3670    5.3864   -1.5724 C.ar    1  UNL1        0.0000
     39 C          -0.7995    4.6175   -1.5832 C.ar    1  UNL1        0.0000
     40 C          -4.3051   -2.5450    0.6216 C.3     1  UNL1        0.0000
     41 C          -5.1628   -1.2640    0.6555 C.ar    1  UNL1        0.0000
     42 C          -5.2509   -0.4606   -0.4928 C.ar    1  UNL1        0.0000
     43 C          -6.0315    0.6920   -0.5104 C.ar    1  UNL1        0.0000
     44 C          -6.7176    1.0539    0.6432 C.ar    1  UNL1        0.0000
     45 C          -6.6419    0.2956    1.8018 C.ar    1  UNL1        0.0000
     46 C          -5.8613   -0.8615    1.7986 C.ar    1  UNL1        0.0000
     47 C          -3.2484    3.0870   -1.7734 C.3     1  UNL1        0.0000
     48 C          -3.2811    3.2691    0.7289 C.3     1  UNL1        0.0000
     49 C          -4.8073   -3.4872   -0.4898 C.3     1  UNL1        0.0000
     50 C          -4.2989   -3.2984    1.9598 C.3     1  UNL1        0.0000
     51 C           1.5200   -5.0190    1.2416 C.3     1  UNL1        0.0000
     52 C           1.4786   -5.1569   -1.2585 C.3     1  UNL1        0.0000
     53 C           2.5881    2.2141   -2.2844 C.3     1  UNL1        0.0000
     54 C           3.8450    0.1076   -1.7343 C.3     1  UNL1        0.0000
     55 H           3.7490   -4.4578   -2.0118 H       1  UNL1        0.0000
     56 H           6.0558   -3.5654   -1.9655 H       1  UNL1        0.0000
     57 H           5.3266   -1.8200    1.8725 H       1  UNL1        0.0000
     58 H           2.9943   -2.6799    1.8257 H       1  UNL1        0.0000
     59 H           3.6861    0.0237    1.1716 H       1  UNL1        0.0000
     60 H           4.8107    1.0359    3.1402 H       1  UNL1        0.0000
     61 H           4.7338    4.8626    1.2153 H       1  UNL1        0.0000
     62 H           3.6286    3.8679   -0.7435 H       1  UNL1        0.0000
     63 H          -0.4707    3.0859    1.4212 H       1  UNL1        0.0000
     64 H           1.5988    4.4489    1.4538 H       1  UNL1        0.0000
     65 H           0.6306    6.0264   -2.4069 H       1  UNL1        0.0000
     66 H          -1.4443    4.6745   -2.4509 H       1  UNL1        0.0000
     67 H          -4.6903   -0.7298   -1.3805 H       1  UNL1        0.0000
     68 H          -6.1168    1.3063   -1.3993 H       1  UNL1        0.0000
     69 H          -7.1854    0.6092    2.6858 H       1  UNL1        0.0000
     70 H          -5.8067   -1.4480    2.7070 H       1  UNL1        0.0000
     71 H          -3.6060    4.1168   -1.8587 H       1  UNL1        0.0000
     72 H          -2.6830    2.8266   -2.6688 H       1  UNL1        0.0000
     73 H          -4.1178    2.4292   -1.7246 H       1  UNL1        0.0000
     74 H          -4.1700    2.6328    0.7567 H       1  UNL1        0.0000
     75 H          -2.7347    3.1294    1.6612 H       1  UNL1        0.0000
     76 H          -3.6004    4.3127    0.6628 H       1  UNL1        0.0000
     77 H          -5.8338   -3.7920   -0.2685 H       1  UNL1        0.0000
     78 H          -4.7889   -3.0070   -1.4676 H       1  UNL1        0.0000
     79 H          -4.1821   -4.3834   -0.5429 H       1  UNL1        0.0000
     80 H          -3.9197   -2.6780    2.7721 H       1  UNL1        0.0000
     81 H          -5.3083   -3.6397    2.2059 H       1  UNL1        0.0000
     82 H          -3.6558   -4.1793    1.8835 H       1  UNL1        0.0000
     83 H           2.2219   -5.8553    1.2994 H       1  UNL1        0.0000
     84 H           1.6480   -4.3917    2.1230 H       1  UNL1        0.0000
     85 H           0.5017   -5.4193    1.2587 H       1  UNL1        0.0000
     86 H           2.1591   -6.0127   -1.2404 H       1  UNL1        0.0000
     87 H           0.4547   -5.5336   -1.1972 H       1  UNL1        0.0000
     88 H           1.5791   -4.6371   -2.2116 H       1  UNL1        0.0000
     89 H           3.5065    2.6910   -2.6372 H       1  UNL1        0.0000
     90 H           2.1269    1.6897   -3.1214 H       1  UNL1        0.0000
     91 H           1.8979    2.9903   -1.9461 H       1  UNL1        0.0000
     92 H           4.8012    0.5577   -2.0146 H       1  UNL1        0.0000
     93 H           4.0410   -0.6767   -1.0016 H       1  UNL1        0.0000
     94 H           3.3924   -0.3515   -2.6157 H       1  UNL1        0.0000
@<TRIPOS>BOND
     1     1     7    1
     2     1    13    1
     3     1     2    1
     4     2     8    1
     5     2    14    1
     6     3    10    1
     7     4    19    1
     8     4     8    1
     9     5    40    1
    10     5    14    1
    11     6    12    1
    12     7     4    1
    13     9     1    1
    14     9     3    1
    15    10     2    1
    16    11     1    1
    17    11     6    1
    18    12     2    1
    19    13     5    1
    20    17    44    1
    21    19    51    1
    22    20    19    1
    23    20    25   ar
    24    21    22   ar
    25    21    20   ar
    26    22    23   ar
    27    23    18    1
    28    23    24   ar
    29    24    57    1
    30    25    24   ar
    31    25    58    1
    32    26     3    1
    33    26    27    1
    34    27    32   ar
    35    27    28   ar
    36    28    59    1
    37    28    29   ar
    38    29    60    1
    39    30    29   ar
    40    30    15    1
    41    31    61    1
    42    31    30   ar
    43    32    31   ar
    44    33     6    1
    45    33    48    1
    46    34    33    1
    47    34    35   ar
    48    35    36   ar
    49    35    63    1
    50    36    64    1
    51    37    16    1
    52    37    36   ar
    53    38    37   ar
    54    39    38   ar
    55    39    34   ar
    56    40    41    1
    57    40    50    1
    58    41    46   ar
    59    42    41   ar
    60    43    42   ar
    61    43    44   ar
    62    44    45   ar
    63    45    69    1
    64    46    45   ar
    65    46    70    1
    66    47    73    1
    67    47    33    1
    68    48    74    1
    69    48    75    1
    70    49    77    1
    71    49    40    1
    72    50    81    1
    73    50    80    1
    74    51    85    1
    75    51    83    1
    76    51    84    1
    77    52    86    1
    78    52    87    1
    79    52    19    1
    80    53    91    1
    81    53    26    1
    82    54    26    1
    83    54    93    1
    84    55    21    1
    85    56    22    1
    86    62    32    1
    87    65    38    1
    88    66    39    1
    89    67    42    1
    90    68    43    1
    91    71    47    1
    92    72    47    1
    93    76    48    1
    94    78    49    1
    95    79    49    1
    96    82    50    1
    97    88    52    1
    98    89    53    1
    99    90    53    1
   100    92    54    1
   101    94    54    1
