@<TRIPOS>MOLECULE
RhRh_S-pBrTPCP_C4-2_10_sp
 166 185 0 0 0
SMALL
GASTEIGER

@<TRIPOS>ATOM
      1 Rh          0.2907    1.0060    1.3451 Rh      1  UNL1        0.0000
      2 Rh          0.1088    0.4147   -0.9663 Rh      1  UNL1        0.0000
      3 C          -1.1979   -1.4471    0.8021 C.3     1  UNL1        0.0000
      4 C          -1.9792    2.1688   -0.0553 C.3     1  UNL1        0.0000
      5 C           1.7534    2.7308   -0.4337 C.3     1  UNL1        0.0000
      6 C           2.3431   -0.7917    0.4490 C.3     1  UNL1        0.0000
      7 O           2.0509   -0.0365    1.4319 O.3     1  UNL1        0.0000
      8 O           1.7752   -0.7556   -0.6928 O.3     1  UNL1        0.0000
      9 O           1.4403    2.6060    0.7942 O.3     1  UNL1        0.0000
     10 O           1.2656    2.0675   -1.3995 O.3     1  UNL1        0.0000
     11 O          -1.4365    2.1227    1.0927 O.3     1  UNL1        0.0000
     12 O          -1.5957    1.5394   -1.0914 O.3     1  UNL1        0.0000
     13 O          -0.7639   -0.7368    1.7623 O.3     1  UNL1        0.0000
     14 O          -1.0348   -1.1876   -0.4372 O.3     1  UNL1        0.0000
     15 BR          3.8965   -5.8115   -4.0766 Br      1  UNL1        0.0000
     16 BR          7.6688   -0.3570   -0.2113 Br      1  UNL1        0.0000
     17 BR         -8.2861   -0.4785    0.8020 Br      1  UNL1        0.0000
     18 BR         -2.8975   -6.0594   -4.0287 Br      1  UNL1        0.0000
     19 C           4.7517   -2.8653   -1.2515 C.ar    1  UNL1        0.0000
     20 C           3.4207   -1.8116    0.6372 C.3     1  UNL1        0.0000
     21 C           3.7083   -2.3823    2.0789 C.3     1  UNL1        0.0000
     22 C           2.5678   -4.4750   -1.9191 C.ar    1  UNL1        0.0000
     23 C           3.5712   -2.7603   -0.5152 C.ar    1  UNL1        0.0000
     24 C           4.8562   -3.7708   -2.3095 C.ar    1  UNL1        0.0000
     25 C           4.0843   -3.8424    2.1089 C.ar    1  UNL1        0.0000
     26 C           2.9411   -1.9330    3.2946 C.ar    1  UNL1        0.0000
     27 C           1.5507   -2.0087    3.3806 C.ar    1  UNL1        0.0000
     28 C           4.6323   -1.3966    1.4511 C.3     1  UNL1        0.0000
     29 C           3.0787   -4.8089    2.2460 C.ar    1  UNL1        0.0000
     30 C           2.4850   -3.5742   -0.8656 C.ar    1  UNL1        0.0000
     31 C           5.4096   -4.2697    1.9954 C.ar    1  UNL1        0.0000
     32 C           3.7636   -4.5678   -2.6305 C.ar    1  UNL1        0.0000
     33 C           4.7151   -6.5823    2.1250 C.ar    1  UNL1        0.0000
     34 C           0.8787   -1.5715    4.5200 C.ar    1  UNL1        0.0000
     35 C           2.9941   -1.0284    5.5463 C.ar    1  UNL1        0.0000
     36 C           3.6570   -1.4457    4.3928 C.ar    1  UNL1        0.0000
     37 C           5.7240   -5.6293    2.0031 C.ar    1  UNL1        0.0000
     38 C           3.3883   -6.1654    2.2500 C.ar    1  UNL1        0.0000
     39 C           1.6009   -1.0831    5.6099 C.ar    1  UNL1        0.0000
     40 C           4.4725    1.8618   -1.6749 C.ar    1  UNL1        0.0000
     41 C           2.9368    3.6069   -0.7617 C.3     1  UNL1        0.0000
     42 C           3.0101    5.1204   -0.5083 C.3     1  UNL1        0.0000
     43 C           5.9491    1.7528    0.6890 C.ar    1  UNL1        0.0000
     44 C           4.1505    2.7204   -0.6179 C.ar    1  UNL1        0.0000
     45 C           5.5201    0.9506   -1.5658 C.ar    1  UNL1        0.0000
     46 C           4.3369    5.6690   -0.0371 C.ar    1  UNL1        0.0000
     47 C           1.8245    5.9070    0.0011 C.ar    1  UNL1        0.0000
     48 C           1.0463    5.5304    1.0998 C.ar    1  UNL1        0.0000
     49 C           2.8685    4.5611   -1.9141 C.3     1  UNL1        0.0000
     50 C           4.4414    6.1836    1.2638 C.ar    1  UNL1        0.0000
     51 C           4.8860    2.6464    0.5692 C.ar    1  UNL1        0.0000
     52 C           5.4902    5.6405   -0.8298 C.ar    1  UNL1        0.0000
     53 C           6.2478    0.9123   -0.3808 C.ar    1  UNL1        0.0000
     54 C           6.8044    6.5978    0.9610 C.ar    1  UNL1        0.0000
     55 C           0.0013    6.3473    1.5414 C.ar    1  UNL1        0.0000
     56 C           0.5199    7.9531   -0.1794 C.ar    1  UNL1        0.0000
     57 C           1.5547    7.1340   -0.6220 C.ar    1  UNL1        0.0000
     58 C           6.7113    6.0990   -0.3372 C.ar    1  UNL1        0.0000
     59 C           5.6610    6.6392    1.7594 C.ar    1  UNL1        0.0000
     60 C          -0.2687    7.5571    0.9042 C.ar    1  UNL1        0.0000
     61 C          -5.4703    2.5798    0.9522 C.ar    1  UNL1        0.0000
     62 C          -3.2382    2.9902   -0.1810 C.3     1  UNL1        0.0000
     63 C          -3.3047    4.1178   -1.2300 C.3     1  UNL1        0.0000
     64 C          -5.7432    0.1375   -0.3680 C.ar    1  UNL1        0.0000
     65 C          -4.4610    2.1577    0.0838 C.ar    1  UNL1        0.0000
     66 C          -6.6055    1.8019    1.1703 C.ar    1  UNL1        0.0000
     67 C          -4.6567    4.4071   -1.8363 C.ar    1  UNL1        0.0000
     68 C          -2.1684    4.3584   -2.1908 C.ar    1  UNL1        0.0000
     69 C          -1.3887    5.5127   -2.0883 C.ar    1  UNL1        0.0000
     70 C          -3.1308    4.4331    0.2349 C.3     1  UNL1        0.0000
     71 C          -5.2889    3.4829   -2.6764 C.ar    1  UNL1        0.0000
     72 C          -4.6114    0.9229   -0.5688 C.ar    1  UNL1        0.0000
     73 C          -5.2798    5.6361   -1.6003 C.ar    1  UNL1        0.0000
     74 C          -6.7312    0.5876    0.5053 C.ar    1  UNL1        0.0000
     75 C          -7.1392    5.0030   -3.0074 C.ar    1  UNL1        0.0000
     76 C          -0.4207    5.8017   -3.0522 C.ar    1  UNL1        0.0000
     77 C          -0.9692    3.7624   -4.2155 C.ar    1  UNL1        0.0000
     78 C          -1.9468    3.4861   -3.2655 C.ar    1  UNL1        0.0000
     79 C          -6.5124    5.9349   -2.1810 C.ar    1  UNL1        0.0000
     80 C          -6.5219    3.7755   -3.2543 C.ar    1  UNL1        0.0000
     81 C          -0.2077    4.9295   -4.1177 C.ar    1  UNL1        0.0000
     82 C          -1.3438   -4.6068   -0.4490 C.ar    1  UNL1        0.0000
     83 C          -1.9374   -2.7175    1.1007 C.3     1  UNL1        0.0000
     84 C          -2.9747   -2.7757    2.2761 C.3     1  UNL1        0.0000
     85 C          -3.4740   -3.9870   -2.1374 C.ar    1  UNL1        0.0000
     86 C          -2.1946   -3.5489   -0.1226 C.ar    1  UNL1        0.0000
     87 C          -1.5406   -5.3573   -1.6081 C.ar    1  UNL1        0.0000
     88 C          -4.2134   -3.5978    2.0125 C.ar    1  UNL1        0.0000
     89 C          -3.1861   -1.5643    3.1464 C.ar    1  UNL1        0.0000
     90 C          -3.0496   -1.7080    4.5318 C.ar    1  UNL1        0.0000
     91 C          -1.6397   -3.4409    2.3991 C.3     1  UNL1        0.0000
     92 C          -4.1760   -4.9959    1.9470 C.ar    1  UNL1        0.0000
     93 C          -3.2569   -3.2469   -0.9801 C.ar    1  UNL1        0.0000
     94 C          -5.4378   -2.9563    1.7752 C.ar    1  UNL1        0.0000
     95 C          -2.6084   -5.0372   -2.4409 C.ar    1  UNL1        0.0000
     96 C          -6.5225   -5.0826    1.3792 C.ar    1  UNL1        0.0000
     97 C          -3.2340   -0.6191    5.3821 C.ar    1  UNL1        0.0000
     98 C          -3.7050    0.7800    3.4737 C.ar    1  UNL1        0.0000
     99 C          -3.5286   -0.3139    2.6284 C.ar    1  UNL1        0.0000
    100 C          -6.5777   -3.6914    1.4558 C.ar    1  UNL1        0.0000
    101 C          -5.3164   -5.7324    1.6329 C.ar    1  UNL1        0.0000
    102 C          -3.5568    0.6315    4.8525 C.ar    1  UNL1        0.0000
    103 H           5.6041   -2.2382   -1.0153 H       1  UNL1        0.0000
    104 H           1.7186   -5.0916   -2.1891 H       1  UNL1        0.0000
    105 H           5.7756   -3.8518   -2.8773 H       1  UNL1        0.0000
    106 H           0.9875   -2.3466    2.5215 H       1  UNL1        0.0000
    107 H           5.6038   -1.7048    1.0913 H       1  UNL1        0.0000
    108 H           4.5972   -0.3890    1.8457 H       1  UNL1        0.0000
    109 H           2.0471   -4.4910    2.3532 H       1  UNL1        0.0000
    110 H           6.2061   -3.5397    1.9018 H       1  UNL1        0.0000
    111 H           4.9584   -7.6402    2.1255 H       1  UNL1        0.0000
    112 H          -0.2063   -1.5784    4.5476 H       1  UNL1        0.0000
    113 H           3.5646   -0.6524    6.3904 H       1  UNL1        0.0000
    114 H           4.7401   -1.3877    4.3358 H       1  UNL1        0.0000
    115 H           6.7601   -5.9411    1.9126 H       1  UNL1        0.0000
    116 H           2.5941   -6.8993    2.3497 H       1  UNL1        0.0000
    117 H           1.0800   -0.7412    6.4991 H       1  UNL1        0.0000
    118 H           3.8804    1.8941   -2.5831 H       1  UNL1        0.0000
    119 H           6.5293    1.7007    1.6026 H       1  UNL1        0.0000
    120 H           5.7581    0.2762   -2.3793 H       1  UNL1        0.0000
    121 H           1.2502    4.5956    1.6025 H       1  UNL1        0.0000
    122 H           3.7115    4.5893   -2.5952 H       1  UNL1        0.0000
    123 H           1.9018    4.6925   -2.3855 H       1  UNL1        0.0000
    124 H           3.5572    6.2282    1.8899 H       1  UNL1        0.0000
    125 H           5.4499    5.2459   -1.8380 H       1  UNL1        0.0000
    126 H           7.7554    6.9532    1.3451 H       1  UNL1        0.0000
    127 H          -0.5945    6.0344    2.3939 H       1  UNL1        0.0000
    128 H           0.3270    8.8980   -0.6784 H       1  UNL1        0.0000
    129 H           2.1727    7.4432   -1.4599 H       1  UNL1        0.0000
    130 H           7.5911    6.0635   -0.9724 H       1  UNL1        0.0000
    131 H           5.7159    7.0296    2.7712 H       1  UNL1        0.0000
    132 H          -1.0787    8.1913    1.2514 H       1  UNL1        0.0000
    133 H          -5.3753    3.5241    1.4749 H       1  UNL1        0.0000
    134 H          -5.8571   -0.8133   -0.8753 H       1  UNL1        0.0000
    135 H          -7.3799    2.1331    1.8516 H       1  UNL1        0.0000
    136 H          -1.5397    6.1960   -1.2600 H       1  UNL1        0.0000
    137 H          -3.9617    4.8910    0.7591 H       1  UNL1        0.0000
    138 H          -2.1534    4.7597    0.5728 H       1  UNL1        0.0000
    139 H          -4.8219    2.5231   -2.8643 H       1  UNL1        0.0000
    140 H          -4.7909    6.3647   -0.9607 H       1  UNL1        0.0000
    141 H          -8.1015    5.2299   -3.4557 H       1  UNL1        0.0000
    142 H           0.1649    6.7094   -2.9613 H       1  UNL1        0.0000
    143 H          -0.8054    3.0711   -5.0366 H       1  UNL1        0.0000
    144 H          -2.5322    2.5785   -3.3442 H       1  UNL1        0.0000
    145 H          -6.9819    6.8946   -1.9868 H       1  UNL1        0.0000
    146 H          -7.0038    3.0425   -3.8939 H       1  UNL1        0.0000
    147 H           0.5463    5.1539   -4.8663 H       1  UNL1        0.0000
    148 H          -0.5125   -4.8505    0.2061 H       1  UNL1        0.0000
    149 H          -4.3034   -3.7587   -2.7962 H       1  UNL1        0.0000
    150 H          -0.8794   -6.1786   -1.8589 H       1  UNL1        0.0000
    151 H          -2.7918   -2.6807    4.9409 H       1  UNL1        0.0000
    152 H          -1.5616   -4.5195    2.3422 H       1  UNL1        0.0000
    153 H          -0.9366   -2.9739    3.0725 H       1  UNL1        0.0000
    154 H          -3.2500   -5.5267    2.1314 H       1  UNL1        0.0000
    155 H          -5.5061   -1.8765    1.8413 H       1  UNL1        0.0000
    156 H          -7.4112   -5.6535    1.1286 H       1  UNL1        0.0000
    157 H          -3.1219   -0.7462    6.4547 H       1  UNL1        0.0000
    158 H          -3.9434    1.7467    3.0470 H       1  UNL1        0.0000
    159 H          -3.6301   -0.1832    1.5584 H       1  UNL1        0.0000
    160 H          -7.5052   -3.1651    1.2642 H       1  UNL1        0.0000
    161 H          -5.2573   -6.8155    1.5855 H       1  UNL1        0.0000
    162 H          -3.6913    1.4845    5.5108 H       1  UNL1        0.0000
    163 H          -3.9250   -2.4308   -0.7290 H       1  UNL1        0.0000
    164 H           1.5525   -3.4857   -0.3188 H       1  UNL1        0.0000
    165 H          -3.8303    0.5748   -1.2363 H       1  UNL1        0.0000
    166 H           4.6370    3.2993    1.3970 H       1  UNL1        0.0000
@<TRIPOS>BOND
     1     1     7    1
     2     1    13    1
     3     2     8    1
     4     2    14    1
     5     2     1    1
     6     3    14    1
     7     3    83    1
     8     3    13    1
     9     4    12    1
    10     4    11    1
    11     5    10    1
    12     5     9    1
    13     6     8    1
    14     6    20    1
    15     6     7    1
    16     9     1    1
    17    10     2    1
    18    11     1    1
    19    12     2    1
    20    15    32    1
    21    18    95    1
    22    19   103    1
    23    19    23   ar
    24    20    23    1
    25    20    28    1
    26    20    21    1
    27    21    25    1
    28    21    26    1
    29    22    30   ar
    30    24    19   ar
    31    25    29   ar
    32    26    27   ar
    33    26    36   ar
    34    27    34   ar
    35    28   108    1
    36    28    21    1
    37    29    38   ar
    38    29   109    1
    39    30    23   ar
    40    30   164    1
    41    31    37   ar
    42    31    25   ar
    43    32    24   ar
    44    32    22   ar
    45    33   111    1
    46    33    38   ar
    47    34   112    1
    48    34    39   ar
    49    35    39   ar
    50    35   113    1
    51    36    35   ar
    52    37    33   ar
    53    38   116    1
    54    39   117    1
    55    40    45   ar
    56    40    44   ar
    57    41    44    1
    58    41    42    1
    59    41     5    1
    60    42    46    1
    61    42    47    1
    62    43   119    1
    63    44    51   ar
    64    45    53   ar
    65    46    50   ar
    66    47    48   ar
    67    48    55   ar
    68    48   121    1
    69    49    41    1
    70    49    42    1
    71    50    59   ar
    72    50   124    1
    73    51    43   ar
    74    51   166    1
    75    52    58   ar
    76    52    46   ar
    77    53    16    1
    78    53    43   ar
    79    54   126    1
    80    54    59   ar
    81    55   127    1
    82    56    60   ar
    83    57    56   ar
    84    57    47   ar
    85    58    54   ar
    86    59   131    1
    87    60   132    1
    88    60    55   ar
    89    61    66   ar
    90    61   133    1
    91    62     4    1
    92    62    65    1
    93    62    70    1
    94    63    62    1
    95    63    70    1
    96    64    74   ar
    97    65    61   ar
    98    66   135    1
    99    67    73   ar
   100    67    63    1
   101    68    69   ar
   102    68    63    1
   103    69   136    1
   104    70   138    1
   105    70   137    1
   106    71    67   ar
   107    72    64   ar
   108    72    65   ar
   109    73   140    1
   110    74    17    1
   111    74    66   ar
   112    75    79   ar
   113    76   142    1
   114    76    69   ar
   115    77    81   ar
   116    77    78   ar
   117    78    68   ar
   118    79   145    1
   119    79    73   ar
   120    80    75   ar
   121    80    71   ar
   122    81    76   ar
   123    82    86   ar
   124    82   148    1
   125    83    86    1
   126    83    84    1
   127    83    91    1
   128    84    91    1
   129    84    89    1
   130    85    93   ar
   131    87    82   ar
   132    88    84    1
   133    89    90   ar
   134    90   151    1
   135    90    97   ar
   136    91   153    1
   137    92    88   ar
   138    92   154    1
   139    93   163    1
   140    93    86   ar
   141    94   155    1
   142    94    88   ar
   143    95    85   ar
   144    95    87   ar
   145    96   100   ar
   146    96   101   ar
   147    97   157    1
   148    98   102   ar
   149    99    89   ar
   150    99    98   ar
   151   100    94   ar
   152   101    92   ar
   153   102    97   ar
   154   102   162    1
   155   104    22    1
   156   105    24    1
   157   106    27    1
   158   107    28    1
   159   110    31    1
   160   114    36    1
   161   115    37    1
   162   118    40    1
   163   120    45    1
   164   122    49    1
   165   123    49    1
   166   125    52    1
   167   128    56    1
   168   129    57    1
   169   130    58    1
   170   134    64    1
   171   139    71    1
   172   141    75    1
   173   143    77    1
   174   144    78    1
   175   146    80    1
   176   147    81    1
   177   149    85    1
   178   150    87    1
   179   152    91    1
   180   156    96    1
   181   158    98    1
   182   159    99    1
   183   160   100    1
   184   161   101    1
   185   165    72    1
