@<TRIPOS>MOLECULE
RhRh_S-PTAD_1_sp
 182 205 0 0 0
SMALL
GASTEIGER

@<TRIPOS>ATOM
      1 Rh          0.1166    0.2472    0.8110 Rh      1  UNL1        0.0000
      2 O           0.3147   -1.7575    1.2798 O.3     1  UNL1        0.0000
      3 O          -0.0889    2.2049    0.2103 O.3     1  UNL1        0.0000
      4 O           0.4768   -2.3200   -0.8981 O.3     1  UNL1        0.0000
      5 O           0.0619    1.6250   -1.9727 O.3     1  UNL1        0.0000
      6 O           2.1719    0.4688    0.8223 O.3     1  UNL1        0.0000
      7 O          -1.9137   -0.0317    0.6849 O.3     1  UNL1        0.0000
      8 O          -1.7564   -0.5959   -1.4939 O.3     1  UNL1        0.0000
      9 O           2.3291   -0.1231   -1.3517 O.3     1  UNL1        0.0000
     10 C          -2.4061   -0.4204   -0.4243 C.3     1  UNL1        0.0000
     11 C           2.8246    0.1810   -0.2227 C.3     1  UNL1        0.0000
     12 C           0.4000   -2.6015    0.3317 C.3     1  UNL1        0.0000
     13 C          -0.0408    2.4677   -1.0255 C.3     1  UNL1        0.0000
     14 Rh          0.2836   -0.3589   -1.4926 Rh      1  UNL1        0.0000
     15 C           4.3644    0.2802   -0.1450 C.3     1  UNL1        0.0000
     16 N           4.8000    0.8623    1.1265 N.am    1  UNL1        0.0000
     17 C           5.4966    2.0928    1.1042 C.2     1  UNL1        0.0000
     18 C           4.5341    0.4461    2.4567 C.2     1  UNL1        0.0000
     19 O           5.8510    2.6712    0.0955 O.2     1  UNL1        0.0000
     20 C           5.6947    2.4891    2.5208 C.ar    1  UNL1        0.0000
     21 O           3.9738   -0.5653    2.8133 O.2     1  UNL1        0.0000
     22 C           5.1171    1.5106    3.3267 C.ar    1  UNL1        0.0000
     23 C           6.3198    3.6049    3.0600 C.ar    1  UNL1        0.0000
     24 C           5.1427    1.6038    4.7109 C.ar    1  UNL1        0.0000
     25 C           6.3486    3.7112    4.4562 C.ar    1  UNL1        0.0000
     26 C           5.7695    2.7259    5.2683 C.ar    1  UNL1        0.0000
     27 C           0.4681   -4.0717    0.8273 C.3     1  UNL1        0.0000
     28 N          -0.5578   -4.2590    1.8548 N.am    1  UNL1        0.0000
     29 C          -0.2351   -4.7075    3.1572 C.2     1  UNL1        0.0000
     30 C          -1.8667   -3.7552    1.7940 C.2     1  UNL1        0.0000
     31 O           0.8575   -5.1059    3.5025 O.2     1  UNL1        0.0000
     32 C          -1.4872   -4.5702    3.9519 C.ar    1  UNL1        0.0000
     33 O          -2.3700   -3.2319    0.8171 O.2     1  UNL1        0.0000
     34 C          -2.4604   -3.9861    3.1381 C.ar    1  UNL1        0.0000
     35 C          -1.7495   -4.8985    5.2738 C.ar    1  UNL1        0.0000
     36 C          -3.7316   -3.6914    3.6118 C.ar    1  UNL1        0.0000
     37 C          -3.0335   -4.6193    5.7618 C.ar    1  UNL1        0.0000
     38 C          -4.0048   -4.0231    4.9464 C.ar    1  UNL1        0.0000
     39 C          -3.9094   -0.7697   -0.3288 C.3     1  UNL1        0.0000
     40 N          -4.5917    0.2606    0.4577 N.am    1  UNL1        0.0000
     41 C          -4.3930    1.6525    0.3439 C.2     1  UNL1        0.0000
     42 C          -5.3208   -0.0634    1.6178 C.2     1  UNL1        0.0000
     43 O          -3.7012    2.2040   -0.4880 O.2     1  UNL1        0.0000
     44 C          -5.1784    2.2628    1.4558 C.ar    1  UNL1        0.0000
     45 O          -5.5468   -1.1905    2.0165 O.2     1  UNL1        0.0000
     46 C          -5.7329    1.2346    2.2188 C.ar    1  UNL1        0.0000
     47 C          -5.3808    3.5963    1.7800 C.ar    1  UNL1        0.0000
     48 C          -6.5123    1.4959    3.3364 C.ar    1  UNL1        0.0000
     49 C          -6.1696    3.8718    2.9052 C.ar    1  UNL1        0.0000
     50 C          -6.7264    2.8395    3.6715 C.ar    1  UNL1        0.0000
     51 C          -0.1220    3.9369   -1.4746 C.3     1  UNL1        0.0000
     52 N          -0.9680    4.7626   -0.6019 N.am    1  UNL1        0.0000
     53 C          -0.8995    5.0438    0.7873 C.2     1  UNL1        0.0000
     54 C          -2.1227    5.3491   -1.1835 C.2     1  UNL1        0.0000
     55 O          -0.0577    4.6974    1.5844 O.2     1  UNL1        0.0000
     56 C          -2.0935    5.8959    1.0781 C.ar    1  UNL1        0.0000
     57 O          -2.4339    5.2641   -2.3536 O.2     1  UNL1        0.0000
     58 C          -2.8177    6.0827   -0.0951 C.ar    1  UNL1        0.0000
     59 C          -2.4910    6.4726    2.2764 C.ar    1  UNL1        0.0000
     60 C          -3.9717    6.8550   -0.1271 C.ar    1  UNL1        0.0000
     61 C          -3.6538    7.2541    2.2599 C.ar    1  UNL1        0.0000
     62 C          -4.3831    7.4431    1.0764 C.ar    1  UNL1        0.0000
     63 H          -0.6988    3.9152   -2.4057 H       1  UNL1        0.0000
     64 H          -3.9207   -1.6569    0.3158 H       1  UNL1        0.0000
     65 H           1.4121   -4.1428    1.3845 H       1  UNL1        0.0000
     66 H           4.6399    1.0607   -0.8662 H       1  UNL1        0.0000
     67 C           1.7422   -5.0962   -1.1425 C.3     1  UNL1        0.0000
     68 H           1.7917   -4.1322   -1.6848 H       1  UNL1        0.0000
     69 H           2.6526   -5.1580   -0.5084 H       1  UNL1        0.0000
     70 C           1.7716   -6.2309   -2.1865 C.3     1  UNL1        0.0000
     71 H           2.6823   -6.1307   -2.8167 H       1  UNL1        0.0000
     72 C           0.4644   -5.1976   -0.2509 C.3     1  UNL1        0.0000
     73 C          -0.8008   -5.1524   -1.1627 C.3     1  UNL1        0.0000
     74 H          -0.8872   -4.1828   -1.6940 H       1  UNL1        0.0000
     75 H          -1.7205   -5.2787   -0.5539 H       1  UNL1        0.0000
     76 C           0.5155   -6.1383   -3.0789 C.3     1  UNL1        0.0000
     77 H           0.5405   -6.9371   -3.8523 H       1  UNL1        0.0000
     78 H           0.4977   -5.1618   -3.6112 H       1  UNL1        0.0000
     79 C          -0.7508   -6.2878   -2.2088 C.3     1  UNL1        0.0000
     80 H          -1.6528   -6.2330   -2.8566 H       1  UNL1        0.0000
     81 C          -0.7215   -7.6509   -1.4861 C.3     1  UNL1        0.0000
     82 H          -1.6380   -7.7745   -0.8682 H       1  UNL1        0.0000
     83 H          -0.7113   -8.4762   -2.2317 H       1  UNL1        0.0000
     84 C           1.7969   -7.5923   -1.4638 C.3     1  UNL1        0.0000
     85 H           2.7077   -7.6702   -0.8299 H       1  UNL1        0.0000
     86 H           1.8392   -8.4174   -2.2084 H       1  UNL1        0.0000
     87 C           0.4969   -6.5932    0.4510 C.3     1  UNL1        0.0000
     88 H           1.3881   -6.6713    1.1128 H       1  UNL1        0.0000
     89 H          -0.4019   -6.7317    1.0911 H       1  UNL1        0.0000
     90 C           0.5333   -7.7322   -0.5918 C.3     1  UNL1        0.0000
     91 H           0.5520   -8.7131   -0.0688 H       1  UNL1        0.0000
     92 C           6.7917   -3.4202    0.1101 C.3     1  UNL1        0.0000
     93 H           6.8323   -3.3390    1.2187 H       1  UNL1        0.0000
     94 H           7.3670   -4.3280   -0.1766 H       1  UNL1        0.0000
     95 C           7.4249   -2.1699   -0.5348 C.3     1  UNL1        0.0000
     96 H           8.4805   -2.0750   -0.1993 H       1  UNL1        0.0000
     97 C           5.3271   -3.5556   -0.3562 C.3     1  UNL1        0.0000
     98 H           4.8805   -4.4616    0.1066 H       1  UNL1        0.0000
     99 C           4.5270   -2.3064    0.0778 C.3     1  UNL1        0.0000
    100 H           4.5437   -2.2500    1.1823 H       1  UNL1        0.0000
    101 H           3.4674   -2.4328   -0.2331 H       1  UNL1        0.0000
    102 C           6.6342   -0.9162   -0.1054 C.3     1  UNL1        0.0000
    103 H           7.1062   -0.0107   -0.5477 H       1  UNL1        0.0000
    104 H           6.7086   -0.8211    0.9999 H       1  UNL1        0.0000
    105 C           5.1404   -1.0177   -0.5529 C.3     1  UNL1        0.0000
    106 C           5.1280   -1.1840   -2.1081 C.3     1  UNL1        0.0000
    107 H           4.0940   -1.2880   -2.4936 H       1  UNL1        0.0000
    108 H           5.5708   -0.2875   -2.5964 H       1  UNL1        0.0000
    109 C           7.3856   -2.3030   -2.0698 C.3     1  UNL1        0.0000
    110 H           7.9694   -3.1940   -2.3895 H       1  UNL1        0.0000
    111 H           7.8546   -1.4116   -2.5416 H       1  UNL1        0.0000
    112 C           5.2872   -3.6887   -1.8928 C.3     1  UNL1        0.0000
    113 H           5.8390   -4.6008   -2.2097 H       1  UNL1        0.0000
    114 H           4.2376   -3.8007   -2.2404 H       1  UNL1        0.0000
    115 C           5.9220   -2.4375   -2.5342 C.3     1  UNL1        0.0000
    116 H           5.8940   -2.5354   -3.6413 H       1  UNL1        0.0000
    117 C           1.0956    6.0939   -2.1182 C.3     1  UNL1        0.0000
    118 H           0.3715    6.2393   -2.9504 H       1  UNL1        0.0000
    119 H           0.6917    6.6304   -1.2317 H       1  UNL1        0.0000
    120 C           2.4502    6.7289   -2.4987 C.3     1  UNL1        0.0000
    121 H           2.3064    7.8114   -2.7070 H       1  UNL1        0.0000
    122 C           1.2646    4.5730   -1.8109 C.3     1  UNL1        0.0000
    123 C           1.8632    3.8928   -3.0842 C.3     1  UNL1        0.0000
    124 H           1.1581    3.9831   -3.9402 H       1  UNL1        0.0000
    125 H           2.0340    2.8095   -2.9087 H       1  UNL1        0.0000
    126 C           3.0085    6.0347   -3.7569 C.3     1  UNL1        0.0000
    127 H           3.9749    6.5002   -4.0509 H       1  UNL1        0.0000
    128 H           2.3045    6.1654   -4.6081 H       1  UNL1        0.0000
    129 C           3.2132    4.5344   -3.4668 C.3     1  UNL1        0.0000
    130 H           3.6176    4.0344   -4.3738 H       1  UNL1        0.0000
    131 C           4.2066    4.3613   -2.3002 C.3     1  UNL1        0.0000
    132 H           4.3675    3.2798   -2.1006 H       1  UNL1        0.0000
    133 H           5.1924    4.7994   -2.5707 H       1  UNL1        0.0000
    134 C           3.4441    6.5583   -1.3304 C.3     1  UNL1        0.0000
    135 H           3.0567    7.0719   -0.4230 H       1  UNL1        0.0000
    136 H           4.4175    7.0307   -1.5878 H       1  UNL1        0.0000
    137 C           2.2954    4.4176   -0.6510 C.3     1  UNL1        0.0000
    138 H           1.9336    4.9201    0.2647 H       1  UNL1        0.0000
    139 H           2.4574    3.3449   -0.4066 H       1  UNL1        0.0000
    140 C           3.6476    5.0560   -1.0410 C.3     1  UNL1        0.0000
    141 H           4.3668    4.9393   -0.2018 H       1  UNL1        0.0000
    142 C          -4.5808    0.0051   -2.7077 C.3     1  UNL1        0.0000
    143 H          -3.5306    0.2422   -2.9743 H       1  UNL1        0.0000
    144 H          -5.0383    0.9350   -2.3087 H       1  UNL1        0.0000
    145 C          -4.6561   -1.1342   -1.6466 C.3     1  UNL1        0.0000
    146 C          -5.3378   -0.4048   -3.9907 C.3     1  UNL1        0.0000
    147 H          -5.2650    0.4134   -4.7401 H       1  UNL1        0.0000
    148 C          -4.7144   -1.6911   -4.5737 C.3     1  UNL1        0.0000
    149 H          -3.6465   -1.5140   -4.8293 H       1  UNL1        0.0000
    150 H          -5.2376   -1.9737   -5.5137 H       1  UNL1        0.0000
    151 C          -4.0678   -2.4471   -2.2595 C.3     1  UNL1        0.0000
    152 H          -4.1380   -3.2796   -1.5243 H       1  UNL1        0.0000
    153 H          -2.9962   -2.3400   -2.5173 H       1  UNL1        0.0000
    154 C          -4.8285   -2.8357   -3.5441 C.3     1  UNL1        0.0000
    155 H          -4.3860   -3.7626   -3.9703 H       1  UNL1        0.0000
    156 C          -6.3120   -3.0854   -3.2071 C.3     1  UNL1        0.0000
    157 H          -6.8646   -3.3875   -4.1239 H       1  UNL1        0.0000
    158 H          -6.4016   -3.9188   -2.4759 H       1  UNL1        0.0000
    159 C          -6.1643   -1.4020   -1.3372 C.3     1  UNL1        0.0000
    160 H          -6.6456   -0.4943   -0.9114 H       1  UNL1        0.0000
    161 H          -6.2644   -2.2135   -0.5823 H       1  UNL1        0.0000
    162 C          -6.8221   -0.6589   -3.6536 C.3     1  UNL1        0.0000
    163 H          -7.2843    0.2675   -3.2467 H       1  UNL1        0.0000
    164 H          -7.3806   -0.9295   -4.5766 H       1  UNL1        0.0000
    165 C          -6.9267   -1.7996   -2.6199 C.3     1  UNL1        0.0000
    166 H          -7.9961   -1.9797   -2.3749 H       1  UNL1        0.0000
    167 H          -4.9458    4.3910    1.1835 H       1  UNL1        0.0000
    168 H          -6.3495    4.9046    3.1897 H       1  UNL1        0.0000
    169 H          -7.3320    3.0863    4.5390 H       1  UNL1        0.0000
    170 H          -6.9354    0.6868    3.9235 H       1  UNL1        0.0000
    171 H           4.6908    0.8343    5.3289 H       1  UNL1        0.0000
    172 H           5.8083    2.8370    6.3483 H       1  UNL1        0.0000
    173 H           6.8263    4.5699    4.9193 H       1  UNL1        0.0000
    174 H           6.7632    4.3605    2.4192 H       1  UNL1        0.0000
    175 H          -1.9150    6.3209    3.1839 H       1  UNL1        0.0000
    176 H          -3.9949    7.7276    3.1764 H       1  UNL1        0.0000
    177 H          -5.2774    8.0599    1.0941 H       1  UNL1        0.0000
    178 H          -4.5240    6.9951   -1.0511 H       1  UNL1        0.0000
    179 H          -4.4700   -3.2059    2.9809 H       1  UNL1        0.0000
    180 H          -4.9869   -3.8092    5.3582 H       1  UNL1        0.0000
    181 H          -3.2790   -4.8621    6.7919 H       1  UNL1        0.0000
    182 H          -0.9854   -5.3480    5.9002 H       1  UNL1        0.0000
@<TRIPOS>BOND
     1     1     6    1
     2     1     2    1
     3     3     1    1
     4     4    12    1
     5     5    14    1
     6     5    13    1
     7     7     1    1
     8     8    14    1
     9     8    10    1
    10     9    11    1
    11    10    39    1
    12    10     7    1
    13    11    15    1
    14    11     6    1
    15    12    27    1
    16    12     2    1
    17    13    51    1
    18    13     3    1
    19    14     9    1
    20    14     4    1
    21    14     1    1
    22    15    66    1
    23    15    16    1
    24    16    18   am
    25    17    16   am
    26    17    20    1
    27    18    21    2
    28    18    22    1
    29    19    17    2
    30    20    23   ar
    31    20    22   ar
    32    22    24   ar
    33    23    25   ar
    34    24    26   ar
    35    24   171    1
    36    25   173    1
    37    25    26   ar
    38    26   172    1
    39    27    65    1
    40    27    28    1
    41    28    29   am
    42    29    31    2
    43    29    32    1
    44    30    28   am
    45    30    34    1
    46    32    35   ar
    47    33    30    2
    48    34    36   ar
    49    34    32   ar
    50    35    37   ar
    51    35   182    1
    52    36    38   ar
    53    37   181    1
    54    38   180    1
    55    38    37   ar
    56    39    64    1
    57    39    40    1
    58    40    42   am
    59    41    40   am
    60    41    44    1
    61    42    45    2
    62    42    46    1
    63    43    41    2
    64    44    47   ar
    65    44    46   ar
    66    46    48   ar
    67    47    49   ar
    68    48    50   ar
    69    48   170    1
    70    49   168    1
    71    49    50   ar
    72    50   169    1
    73    51    63    1
    74    51    52    1
    75    52    53   am
    76    53    56    1
    77    53    55    2
    78    54    52   am
    79    54    58    1
    80    56    59   ar
    81    57    54    2
    82    58    56   ar
    83    59   175    1
    84    60    58   ar
    85    60    62   ar
    86    61    59   ar
    87    61   176    1
    88    62   177    1
    89    62    61   ar
    90    67    69    1
    91    67    72    1
    92    68    67    1
    93    70    71    1
    94    70    84    1
    95    70    67    1
    96    72    87    1
    97    72    27    1
    98    73    75    1
    99    73    72    1
   100    74    73    1
   101    76    79    1
   102    76    70    1
   103    77    76    1
   104    78    76    1
   105    79    80    1
   106    79    81    1
   107    79    73    1
   108    81    82    1
   109    81    90    1
   110    83    81    1
   111    84    85    1
   112    84    90    1
   113    86    84    1
   114    87    89    1
   115    87    88    1
   116    90    91    1
   117    90    87    1
   118    92    93    1
   119    94    92    1
   120    95    96    1
   121    95   102    1
   122    95    92    1
   123    97    99    1
   124    97    98    1
   125    97    92    1
   126    99   100    1
   127   101    99    1
   128   102   104    1
   129   103   102    1
   130   105    15    1
   131   105   102    1
   132   105    99    1
   133   106   105    1
   134   107   106    1
   135   108   106    1
   136   109    95    1
   137   110   109    1
   138   111   109    1
   139   112    97    1
   140   113   112    1
   141   114   112    1
   142   115   116    1
   143   115   106    1
   144   115   109    1
   145   115   112    1
   146   117   122    1
   147   117   119    1
   148   118   117    1
   149   120   121    1
   150   120   117    1
   151   120   134    1
   152   122    51    1
   153   122   137    1
   154   123   125    1
   155   123   122    1
   156   124   123    1
   157   126   129    1
   158   126   120    1
   159   127   126    1
   160   128   126    1
   161   129   130    1
   162   129   123    1
   163   129   131    1
   164   131   132    1
   165   131   140    1
   166   133   131    1
   167   134   140    1
   168   134   135    1
   169   136   134    1
   170   137   139    1
   171   137   138    1
   172   140   137    1
   173   140   141    1
   174   142   144    1
   175   142   145    1
   176   143   142    1
   177   145   159    1
   178   145    39    1
   179   146   147    1
   180   146   162    1
   181   146   142    1
   182   148   146    1
   183   148   154    1
   184   149   148    1
   185   150   148    1
   186   151   145    1
   187   151   152    1
   188   153   151    1
   189   154   155    1
   190   154   156    1
   191   154   151    1
   192   156   165    1
   193   156   158    1
   194   157   156    1
   195   159   160    1
   196   159   161    1
   197   162   163    1
   198   162   165    1
   199   164   162    1
   200   165   166    1
   201   165   159    1
   202   167    47    1
   203   174    23    1
   204   178    60    1
   205   179    36    1
