@<TRIPOS>MOLECULE
RhRh_cis-Cy-fused-Hback-S-PTV4_20_sp
 146 157 0 0 0
SMALL
GASTEIGER

@<TRIPOS>ATOM
      1 Rh          0.3315   -0.0025    0.2067 Rh      1  UNL1        0.0000
      2 Rh          0.3631   -0.0781   -2.1844 Rh      1  UNL1        0.0000
      3 C          -2.0379    1.0314   -1.0418 C.3     1  UNL1        0.0000
      4 C           2.6939   -1.2060   -0.9411 C.3     1  UNL1        0.0000
      5 C          -0.7862   -2.4011   -0.9290 C.3     1  UNL1        0.0000
      6 C           1.5086    2.3050   -1.0352 C.3     1  UNL1        0.0000
      7 O           1.1920    1.8470    0.1099 O.3     1  UNL1        0.0000
      8 O           1.2272    1.7890   -2.1550 O.3     1  UNL1        0.0000
      9 O          -1.5276    0.8319    0.1071 O.3     1  UNL1        0.0000
     10 O          -1.5135    0.7507   -2.1584 O.3     1  UNL1        0.0000
     11 O          -0.5255   -1.8541    0.1913 O.3     1  UNL1        0.0000
     12 O          -0.4902   -1.9474   -2.0714 O.3     1  UNL1        0.0000
     13 O           2.1843   -0.8691    0.1776 O.3     1  UNL1        0.0000
     14 O           2.2241   -0.9469   -2.0850 O.3     1  UNL1        0.0000
     15 N           3.4091    3.3533   -0.0224 N.am    1  UNL1        0.0000
     16 N          -3.3561    2.7652   -0.0549 N.am    1  UNL1        0.0000
     17 N          -2.6093   -3.5376    0.1467 N.am    1  UNL1        0.0000
     18 N           3.7747   -2.9996    0.2280 N.am    1  UNL1        0.0000
     19 C           4.2214    2.2195   -0.0333 C.2     1  UNL1        0.0000
     20 C           3.5444    4.1047    1.1471 C.2     1  UNL1        0.0000
     21 C          -4.0987    2.7819    1.1230 C.2     1  UNL1        0.0000
     22 C          -2.3782    3.7604   -0.0981 C.2     1  UNL1        0.0000
     23 C          -2.8037   -4.3904    1.2374 C.2     1  UNL1        0.0000
     24 C          -3.3974   -2.3868    0.2220 C.2     1  UNL1        0.0000
     25 C           2.6481   -3.8247    0.2854 C.2     1  UNL1        0.0000
     26 C           4.4206   -2.9095    1.4695 C.2     1  UNL1        0.0000
     27 C           2.3388    3.5905   -0.9911 C.3     1  UNL1        0.0000
     28 C           2.8293    4.0929   -2.3609 C.3     1  UNL1        0.0000
     29 C           1.6441    4.6597   -3.1542 C.3     1  UNL1        0.0000
     30 C           3.9227    5.1533   -2.1885 C.3     1  UNL1        0.0000
     31 C          -3.4259    1.6692   -1.0161 C.3     1  UNL1        0.0000
     32 C          -3.9935    2.0642   -2.3917 C.3     1  UNL1        0.0000
     33 C          -5.2010    2.9949   -2.2283 C.3     1  UNL1        0.0000
     34 C          -4.3918    0.8000   -3.1666 C.3     1  UNL1        0.0000
     35 C          -1.5166   -3.7361   -0.8084 C.3     1  UNL1        0.0000
     36 C          -1.9531   -4.4445   -2.1044 C.3     1  UNL1        0.0000
     37 C          -2.9621   -3.6577   -2.9478 C.3     1  UNL1        0.0000
     38 C          -0.7273   -4.8719   -2.9245 C.3     1  UNL1        0.0000
     39 C           4.0017   -1.9874   -0.8110 C.3     1  UNL1        0.0000
     40 C           4.6610   -2.5258   -2.0945 C.3     1  UNL1        0.0000
     41 C           3.8228   -3.5387   -2.8828 C.3     1  UNL1        0.0000
     42 C           5.1211   -1.3606   -2.9838 C.3     1  UNL1        0.0000
     43 C           2.7452   -2.6442    3.2403 C.3     1  UNL1        0.0000
     44 C           3.5928   -3.6961    2.4728 C.3     1  UNL1        0.0000
     45 C           2.7303   -4.6178    1.5830 C.3     1  UNL1        0.0000
     46 C           1.3770   -5.0614    2.1456 C.3     1  UNL1        0.0000
     47 C           0.6192   -3.9276    2.8408 C.3     1  UNL1        0.0000
     48 C           1.5042   -3.2549    3.8955 C.3     1  UNL1        0.0000
     49 C          -5.2675   -4.6665    1.4679 C.3     1  UNL1        0.0000
     50 C          -5.4247   -1.6828    1.6532 C.3     1  UNL1        0.0000
     51 C          -6.5556   -2.5363    1.0734 C.3     1  UNL1        0.0000
     52 C          -6.5799   -3.9219    1.7300 C.3     1  UNL1        0.0000
     53 C          -4.0713   -2.3899    1.5858 C.3     1  UNL1        0.0000
     54 C          -4.0322   -3.8833    1.9796 C.3     1  UNL1        0.0000
     55 C          -5.2320    5.6997    2.2355 C.3     1  UNL1        0.0000
     56 C          -4.4821    4.5665    2.9418 C.3     1  UNL1        0.0000
     57 C          -3.4485    5.9269    0.4805 C.3     1  UNL1        0.0000
     58 C          -4.2489    6.6609    1.5585 C.3     1  UNL1        0.0000
     59 C          -3.4877    3.8501    2.0254 C.3     1  UNL1        0.0000
     60 C          -2.6624    4.7185    1.0482 C.3     1  UNL1        0.0000
     61 C           4.2778    1.2399    3.6477 C.3     1  UNL1        0.0000
     62 C           4.1096    1.0640    2.1385 C.3     1  UNL1        0.0000
     63 C           4.6937    3.7124    3.4100 C.3     1  UNL1        0.0000
     64 C           3.8290    2.6397    4.0785 C.3     1  UNL1        0.0000
     65 C           4.7614    3.5586    1.8884 C.3     1  UNL1        0.0000
     66 C           4.8971    2.1259    1.3248 C.3     1  UNL1        0.0000
     67 H           1.7093    4.3573   -0.5249 H       1  UNL1        0.0000
     68 H           1.9696    4.9660   -4.1531 H       1  UNL1        0.0000
     69 H           1.2313    5.5417   -2.6506 H       1  UNL1        0.0000
     70 H           0.8443    3.9259   -3.2633 H       1  UNL1        0.0000
     71 H           4.8212    4.7400   -1.7223 H       1  UNL1        0.0000
     72 H           3.5703    5.9846   -1.5671 H       1  UNL1        0.0000
     73 H           4.2086    5.5597   -3.1630 H       1  UNL1        0.0000
     74 H          -4.0847    0.9251   -0.5573 H       1  UNL1        0.0000
     75 H          -5.9590    2.5433   -1.5784 H       1  UNL1        0.0000
     76 H          -5.6614    3.1885   -3.2016 H       1  UNL1        0.0000
     77 H          -4.9195    3.9589   -1.7963 H       1  UNL1        0.0000
     78 H          -5.2001    0.2720   -2.6479 H       1  UNL1        0.0000
     79 H          -3.5529    0.1115   -3.2717 H       1  UNL1        0.0000
     80 H          -4.7497    1.0670   -4.1657 H       1  UNL1        0.0000
     81 H          -0.8104   -4.3935   -0.2913 H       1  UNL1        0.0000
     82 H          -3.8633   -3.4131   -2.3812 H       1  UNL1        0.0000
     83 H          -3.2586   -4.2543   -3.8166 H       1  UNL1        0.0000
     84 H          -2.5278   -2.7212   -3.3027 H       1  UNL1        0.0000
     85 H           0.0008   -5.4055   -2.3061 H       1  UNL1        0.0000
     86 H          -0.2245   -4.0041   -3.3553 H       1  UNL1        0.0000
     87 H          -1.0364   -5.5332   -3.7398 H       1  UNL1        0.0000
     88 H           4.7050   -1.2826   -0.3558 H       1  UNL1        0.0000
     89 H           2.8834   -3.0939   -3.2159 H       1  UNL1        0.0000
     90 H           3.5814   -4.4226   -2.2893 H       1  UNL1        0.0000
     91 H           4.3841   -3.8662   -3.7641 H       1  UNL1        0.0000
     92 H           5.6868   -0.6180   -2.4133 H       1  UNL1        0.0000
     93 H           4.2652   -0.8518   -3.4311 H       1  UNL1        0.0000
     94 H           5.7596   -1.7375   -3.7887 H       1  UNL1        0.0000
     95 H           3.2447    3.2350   -2.8989 H       1  UNL1        0.0000
     96 H          -3.2067    2.5900   -2.9424 H       1  UNL1        0.0000
     97 H          -2.4480   -5.3588   -1.7484 H       1  UNL1        0.0000
     98 H           5.5605   -3.0411   -1.7305 H       1  UNL1        0.0000
     99 H           4.2323   -4.2461    3.1668 H       1  UNL1        0.0000
    100 H           1.8019   -3.9902    4.6560 H       1  UNL1        0.0000
    101 H           2.4186   -1.8751    2.5296 H       1  UNL1        0.0000
    102 H           0.7738   -5.4868    1.3390 H       1  UNL1        0.0000
    103 H           1.5562   -5.8678    2.8670 H       1  UNL1        0.0000
    104 H          -0.2924   -4.3322    3.2905 H       1  UNL1        0.0000
    105 H           0.3038   -3.1860    2.0972 H       1  UNL1        0.0000
    106 H           0.9498   -2.4671    4.4189 H       1  UNL1        0.0000
    107 H           3.3920   -2.1471    3.9693 H       1  UNL1        0.0000
    108 H           3.3210   -5.5106    1.3344 H       1  UNL1        0.0000
    109 H          -7.4165   -4.5164    1.3471 H       1  UNL1        0.0000
    110 H          -5.2677   -5.6617    1.9219 H       1  UNL1        0.0000
    111 H          -5.6448   -1.4674    2.7058 H       1  UNL1        0.0000
    112 H          -5.3492   -0.7153    1.1486 H       1  UNL1        0.0000
    113 H          -6.4150   -2.6494   -0.0102 H       1  UNL1        0.0000
    114 H          -7.5137   -2.0254    1.2148 H       1  UNL1        0.0000
    115 H          -6.7381   -3.8122    2.8117 H       1  UNL1        0.0000
    116 H          -5.1680   -4.8164    0.3846 H       1  UNL1        0.0000
    117 H          -3.3560   -1.8483    2.2217 H       1  UNL1        0.0000
    118 H          -3.9103   -4.0342    3.0546 H       1  UNL1        0.0000
    119 H          -3.9312    4.9832    3.7934 H       1  UNL1        0.0000
    120 H          -5.1787    3.8222    3.3402 H       1  UNL1        0.0000
    121 H          -4.7827    7.5034    1.1057 H       1  UNL1        0.0000
    122 H          -5.8592    6.2319    2.9583 H       1  UNL1        0.0000
    123 H          -4.1533    5.5699   -0.2817 H       1  UNL1        0.0000
    124 H          -2.7470    6.5918   -0.0312 H       1  UNL1        0.0000
    125 H          -3.5685    7.0834    2.3107 H       1  UNL1        0.0000
    126 H          -5.9086    5.2810    1.4783 H       1  UNL1        0.0000
    127 H          -2.7813    3.2834    2.6484 H       1  UNL1        0.0000
    128 H          -1.7225    5.0603    1.4877 H       1  UNL1        0.0000
    129 H           4.4299    0.0717    1.8174 H       1  UNL1        0.0000
    130 H           3.0451    1.1491    1.8920 H       1  UNL1        0.0000
    131 H           2.7772    2.7862    3.7973 H       1  UNL1        0.0000
    132 H           5.3271    1.0826    3.9323 H       1  UNL1        0.0000
    133 H           4.3197    4.7156    3.6367 H       1  UNL1        0.0000
    134 H           5.7127    3.6472    3.8099 H       1  UNL1        0.0000
    135 H           3.8843    2.7503    5.1669 H       1  UNL1        0.0000
    136 H           3.6933    0.4705    4.1648 H       1  UNL1        0.0000
    137 H           5.6024    4.1587    1.5134 H       1  UNL1        0.0000
    138 H           5.9380    1.8126    1.2152 H       1  UNL1        0.0000
    139 O          -2.1273   -5.3718    1.4717 O.2     1  UNL1        0.0000
    140 O          -3.4563   -1.5306   -0.6392 O.2     1  UNL1        0.0000
    141 O          -5.0170    2.0269    1.3759 O.2     1  UNL1        0.0000
    142 O          -1.5164    3.8357   -0.9521 O.2     1  UNL1        0.0000
    143 O           2.8318    5.0371    1.4557 O.2     1  UNL1        0.0000
    144 O           4.2637    1.4201   -0.9505 O.2     1  UNL1        0.0000
    145 O           1.7844   -3.8800   -0.5688 O.2     1  UNL1        0.0000
    146 O           5.3935   -2.2148    1.6843 O.2     1  UNL1        0.0000
@<TRIPOS>BOND
     1     2    10    1
     2     2     8    1
     3     2    14    1
     4     2    12    1
     5     2     1    1
     6     3    31    1
     7     3     9    1
     8     4    39    1
     9     4    13    1
    10     5    35    1
    11     5    11    1
    12     6    27    1
    13     6     7    1
    14     7     1    1
    15     8     6    1
    16     9     1    1
    17    10     3    1
    18    11     1    1
    19    12     5    1
    20    13     1    1
    21    14     4    1
    22    15    20   am
    23    16    21   am
    24    17    24   am
    25    17    23   am
    26    18    25   am
    27    18    26   am
    28    19    15   am
    29    19    66    1
    30    20   143    2
    31    20    65    1
    32    21   141    2
    33    21    59    1
    34    22    16   am
    35    22    60    1
    36    23   139    2
    37    23    54    1
    38    24    53    1
    39    25    45    1
    40    26   146    2
    41    26    44    1
    42    27    67    1
    43    27    15    1
    44    28    30    1
    45    28    27    1
    46    29    69    1
    47    29    28    1
    48    30    71    1
    49    30    72    1
    50    31    74    1
    51    31    16    1
    52    32    33    1
    53    32    31    1
    54    33    77    1
    55    33    75    1
    56    34    78    1
    57    34    32    1
    58    35    81    1
    59    35    17    1
    60    36    97    1
    61    36    35    1
    62    37    82    1
    63    37    36    1
    64    38    85    1
    65    38    36    1
    66    39    88    1
    67    39    18    1
    68    40    98    1
    69    40    39    1
    70    41    90    1
    71    41    40    1
    72    42    92    1
    73    42    40    1
    74    43    48    1
    75    43   107    1
    76    44    99    1
    77    44    43    1
    78    45   108    1
    79    45    46    1
    80    45    44    1
    81    46    47    1
    82    46   103    1
    83    47   104    1
    84    47    48    1
    85    48   106    1
    86    48   100    1
    87    49    52    1
    88    49   110    1
    89    49    54    1
    90    50   111    1
    91    51   114    1
    92    51    50    1
    93    51    52    1
    94    52   115    1
    95    53    50    1
    96    53    54    1
    97    53   117    1
    98    54   118    1
    99    55    56    1
   100    55   122    1
   101    56   120    1
   102    56   119    1
   103    57    60    1
   104    57    58    1
   105    58    55    1
   106    58   125    1
   107    59   127    1
   108    59    56    1
   109    60   128    1
   110    60    59    1
   111    61   132    1
   112    61    64    1
   113    61   136    1
   114    62    61    1
   115    63   133    1
   116    63   134    1
   117    63    64    1
   118    64   135    1
   119    65   137    1
   120    65    63    1
   121    66   138    1
   122    66    65    1
   123    66    62    1
   124    68    29    1
   125    70    29    1
   126    73    30    1
   127    76    33    1
   128    79    34    1
   129    80    34    1
   130    83    37    1
   131    84    37    1
   132    86    38    1
   133    87    38    1
   134    89    41    1
   135    91    41    1
   136    93    42    1
   137    94    42    1
   138    95    28    1
   139    96    32    1
   140   101    43    1
   141   102    46    1
   142   105    47    1
   143   109    52    1
   144   112    50    1
   145   113    51    1
   146   116    49    1
   147   121    58    1
   148   123    57    1
   149   124    57    1
   150   126    55    1
   151   129    62    1
   152   130    62    1
   153   131    64    1
   154   140    24    2
   155   142    22    2
   156   144    19    2
   157   145    25    2
