@<TRIPOS>MOLECULE
RhRh_EtEtiPr-O2C4_20_sp
 114 117 0 0 0
SMALL
GASTEIGER

@<TRIPOS>ATOM
      1 Rh         -0.0278   -0.0902   -1.1786 Rh      1  UNL1        0.0000
      2 Rh         -0.0204   -0.1099    1.2002 Rh      1  UNL1        0.0000
      3 C           2.4149    0.9258    0.0048 C.3     1  UNL1        0.0000
      4 C           0.9604   -2.5514   -0.0138 C.3     1  UNL1        0.0000
      5 C          -2.4590   -1.1276    0.0086 C.3     1  UNL1        0.0000
      6 C          -0.9976    2.3643    0.0259 C.3     1  UNL1        0.0000
      7 O           0.8890   -1.9319   -1.1274 O.3     1  UNL1        0.0000
      8 O           0.6239   -2.0596    1.1118 O.3     1  UNL1        0.0000
      9 O           1.7998    0.8432   -1.1103 O.3     1  UNL1        0.0000
     10 O           1.9232    0.5611    1.1207 O.3     1  UNL1        0.0000
     11 O          -1.8632   -1.0137   -1.1125 O.3     1  UNL1        0.0000
     12 O          -1.9584   -0.7924    1.1326 O.3     1  UNL1        0.0000
     13 O          -0.9360    1.7504   -1.0887 O.3     1  UNL1        0.0000
     14 O          -0.6691    1.8485    1.1461 O.3     1  UNL1        0.0000
     15 C           1.5097   -3.9777   -0.0479 C.3     1  UNL1        0.0000
     16 C           1.1194   -4.7655    1.2351 C.3     1  UNL1        0.0000
     17 C           1.8301   -4.4784    2.5604 C.3     1  UNL1        0.0000
     18 C           3.0790   -3.8929   -0.2167 C.3     1  UNL1        0.0000
     19 C           3.5571   -3.7691   -1.6714 C.3     1  UNL1        0.0000
     20 C           3.7140   -2.7490    0.5938 C.3     1  UNL1        0.0000
     21 C           0.8623   -4.7025   -1.2614 C.3     1  UNL1        0.0000
     22 C          -0.6637   -4.8217   -1.2082 C.3     1  UNL1        0.0000
     23 C           3.7846    1.6165   -0.0015 C.3     1  UNL1        0.0000
     24 C           4.8024    1.0737    1.0471 C.3     1  UNL1        0.0000
     25 C           4.3549    0.5510    2.4195 C.3     1  UNL1        0.0000
     26 C           4.4069    1.4935   -1.4413 C.3     1  UNL1        0.0000
     27 C           5.7645    2.2000   -1.5858 C.3     1  UNL1        0.0000
     28 C           4.5509    0.0415   -1.9264 C.3     1  UNL1        0.0000
     29 C           3.4447    3.1236    0.2558 C.3     1  UNL1        0.0000
     30 C           2.8926    3.4958    1.6336 C.3     1  UNL1        0.0000
     31 C          -3.8946   -1.6618    0.0042 C.3     1  UNL1        0.0000
     32 C          -4.0904   -2.5470   -1.2560 C.3     1  UNL1        0.0000
     33 C          -5.4811   -3.1662   -1.4119 C.3     1  UNL1        0.0000
     34 C          -4.8604   -0.4148   -0.0333 C.3     1  UNL1        0.0000
     35 C          -4.8098    0.4506    1.2342 C.3     1  UNL1        0.0000
     36 C          -4.6529    0.4749   -1.2688 C.3     1  UNL1        0.0000
     37 C          -4.1300   -2.4772    1.3001 C.3     1  UNL1        0.0000
     38 C          -3.2887   -3.7510    1.4227 C.3     1  UNL1        0.0000
     39 C          -1.5147    3.8093    0.0456 C.3     1  UNL1        0.0000
     40 C          -0.5637    4.6116    0.9800 C.3     1  UNL1        0.0000
     41 C          -0.8971    6.0957    1.1435 C.3     1  UNL1        0.0000
     42 C          -2.9656    3.7761    0.6271 C.3     1  UNL1        0.0000
     43 C          -3.1040    3.5227    2.1297 C.3     1  UNL1        0.0000
     44 C          -1.5471    4.4526   -1.3807 C.3     1  UNL1        0.0000
     45 C          -0.1623    4.5421   -2.0423 C.3     1  UNL1        0.0000
     46 C          -2.5647    3.8440   -2.3611 C.3     1  UNL1        0.0000
     47 H           0.0458   -4.6365    1.3965 H       1  UNL1        0.0000
     48 H           1.2661   -5.8260    0.9925 H       1  UNL1        0.0000
     49 H           1.6923   -3.4419    2.8720 H       1  UNL1        0.0000
     50 H           2.9014   -4.6925    2.5135 H       1  UNL1        0.0000
     51 H           1.4078   -5.1228    3.3387 H       1  UNL1        0.0000
     52 H           3.4587   -4.8450    0.1780 H       1  UNL1        0.0000
     53 H           3.3062   -4.6445   -2.2740 H       1  UNL1        0.0000
     54 H           4.6461   -3.6592   -1.6881 H       1  UNL1        0.0000
     55 H           3.1255   -2.8861   -2.1509 H       1  UNL1        0.0000
     56 H           4.8049   -2.8334    0.5650 H       1  UNL1        0.0000
     57 H           3.4033   -2.7329    1.6365 H       1  UNL1        0.0000
     58 H           3.4527   -1.7817    0.1579 H       1  UNL1        0.0000
     59 H           1.1258   -4.1659   -2.1726 H       1  UNL1        0.0000
     60 H          -1.0351   -5.2892   -2.1255 H       1  UNL1        0.0000
     61 H          -1.1281   -3.8337   -1.1369 H       1  UNL1        0.0000
     62 H          -1.0130   -5.4252   -0.3669 H       1  UNL1        0.0000
     63 H           5.3710    0.2675    0.5737 H       1  UNL1        0.0000
     64 H           5.5243    1.8836    1.2053 H       1  UNL1        0.0000
     65 H           5.2495    0.3413    3.0168 H       1  UNL1        0.0000
     66 H           3.7823   -0.3717    2.3317 H       1  UNL1        0.0000
     67 H           3.7397    1.2623    2.9702 H       1  UNL1        0.0000
     68 H           3.7004    1.9882   -2.1159 H       1  UNL1        0.0000
     69 H           6.0946    2.1378   -2.6274 H       1  UNL1        0.0000
     70 H           6.5366    1.7248   -0.9728 H       1  UNL1        0.0000
     71 H           5.7292    3.2596   -1.3217 H       1  UNL1        0.0000
     72 H           4.9022    0.0342   -2.9633 H       1  UNL1        0.0000
     73 H           3.6035   -0.4963   -1.8952 H       1  UNL1        0.0000
     74 H           5.2852   -0.5172   -1.3370 H       1  UNL1        0.0000
     75 H           2.7364    3.4395   -0.5202 H       1  UNL1        0.0000
     76 H           2.6346    4.5595    1.6503 H       1  UNL1        0.0000
     77 H           3.6331    3.3300    2.4197 H       1  UNL1        0.0000
     78 H           1.9950    2.9273    1.8847 H       1  UNL1        0.0000
     79 H          -3.8470   -1.9624   -2.1438 H       1  UNL1        0.0000
     80 H          -3.3470   -3.3483   -1.2309 H       1  UNL1        0.0000
     81 H          -5.5085   -3.7963   -2.3061 H       1  UNL1        0.0000
     82 H          -6.2619   -2.4083   -1.5256 H       1  UNL1        0.0000
     83 H          -5.7511   -3.7967   -0.5593 H       1  UNL1        0.0000
     84 H          -5.8689   -0.8418   -0.0931 H       1  UNL1        0.0000
     85 H          -5.4851    1.3048    1.1220 H       1  UNL1        0.0000
     86 H          -3.8046    0.8364    1.4145 H       1  UNL1        0.0000
     87 H          -5.1210   -0.0966    2.1265 H       1  UNL1        0.0000
     88 H          -5.3856    1.2880   -1.2651 H       1  UNL1        0.0000
     89 H          -4.7754   -0.0732   -2.2057 H       1  UNL1        0.0000
     90 H          -3.6556    0.9241   -1.2792 H       1  UNL1        0.0000
     91 H          -5.1956   -2.7260    1.3590 H       1  UNL1        0.0000
     92 H          -3.5319   -4.4901    0.6543 H       1  UNL1        0.0000
     93 H          -3.4557   -4.2215    2.3965 H       1  UNL1        0.0000
     94 H          -2.2210   -3.5223    1.3479 H       1  UNL1        0.0000
     95 H          -0.5611    4.1271    1.9572 H       1  UNL1        0.0000
     96 H           0.4588    4.5141    0.6064 H       1  UNL1        0.0000
     97 H          -1.9279    6.2511    1.4764 H       1  UNL1        0.0000
     98 H          -0.7600    6.6573    0.2152 H       1  UNL1        0.0000
     99 H          -0.2390    6.5429    1.8950 H       1  UNL1        0.0000
    100 H          -3.4357    4.7350    0.3787 H       1  UNL1        0.0000
    101 H          -2.6928    4.3442    2.7226 H       1  UNL1        0.0000
    102 H          -2.5940    2.6052    2.4303 H       1  UNL1        0.0000
    103 H          -4.1619    3.4250    2.3919 H       1  UNL1        0.0000
    104 H          -1.8836    5.4812   -1.2001 H       1  UNL1        0.0000
    105 H          -0.2481    5.0297   -3.0186 H       1  UNL1        0.0000
    106 H           0.2656    3.5491   -2.2001 H       1  UNL1        0.0000
    107 H           0.5433    5.1297   -1.4484 H       1  UNL1        0.0000
    108 H          -3.5777    3.8293   -1.9519 H       1  UNL1        0.0000
    109 H          -2.2926    2.8251   -2.6381 H       1  UNL1        0.0000
    110 H          -2.5933    4.4508   -3.2723 H       1  UNL1        0.0000
    111 H           1.3113   -5.7008   -1.3322 H       1  UNL1        0.0000
    112 H          -3.9085   -1.8404    2.1566 H       1  UNL1        0.0000
    113 H          -3.5373    3.0159    0.0871 H       1  UNL1        0.0000
    114 H           4.3614    3.6955    0.0873 H       1  UNL1        0.0000
@<TRIPOS>BOND
     1     1     7    1
     2     1    11    1
     3     1     9    1
     4     1    13    1
     5     1     2    1
     6     3    10    1
     7     4     8    1
     8     5    12    1
     9     6    39    1
    10     6    14    1
    11     7     4    1
    12     8     2    1
    13     9     3    1
    14    10     2    1
    15    11     5    1
    16    12     2    1
    17    13     6    1
    18    14     2    1
    19    15     4    1
    20    15    16    1
    21    16    47    1
    22    16    17    1
    23    17    49    1
    24    17    51    1
    25    18    15    1
    26    18    52    1
    27    18    20    1
    28    19    18    1
    29    20    57    1
    30    21    22    1
    31    21    15    1
    32    22    61    1
    33    22    62    1
    34    23     3    1
    35    23    29    1
    36    23    24    1
    37    24    64    1
    38    24    25    1
    39    25    67    1
    40    25    65    1
    41    26    23    1
    42    27    26    1
    43    27    71    1
    44    27    70    1
    45    28    73    1
    46    28    26    1
    47    28    74    1
    48    29    30    1
    49    30    76    1
    50    30    78    1
    51    30    77    1
    52    31     5    1
    53    31    37    1
    54    32    80    1
    55    32    31    1
    56    33    32    1
    57    33    83    1
    58    34    31    1
    59    34    35    1
    60    35    86    1
    61    35    87    1
    62    36    88    1
    63    36    34    1
    64    37    91    1
    65    37    38    1
    66    37   112    1
    67    38    93    1
    68    39    42    1
    69    39    40    1
    70    40    41    1
    71    40    95    1
    72    41    97    1
    73    41    99    1
    74    42    43    1
    75    43   103    1
    76    43   102    1
    77    43   101    1
    78    44   104    1
    79    44    39    1
    80    45   107    1
    81    45    44    1
    82    46   108    1
    83    46    44    1
    84    48    16    1
    85    50    17    1
    86    53    19    1
    87    54    19    1
    88    55    19    1
    89    56    20    1
    90    58    20    1
    91    59    21    1
    92    60    22    1
    93    63    24    1
    94    66    25    1
    95    68    26    1
    96    69    27    1
    97    72    28    1
    98    75    29    1
    99    79    32    1
   100    81    33    1
   101    82    33    1
   102    84    34    1
   103    85    35    1
   104    89    36    1
   105    90    36    1
   106    92    38    1
   107    94    38    1
   108    96    40    1
   109    98    41    1
   110   100    42    1
   111   105    45    1
   112   106    45    1
   113   109    46    1
   114   110    46    1
   115   111    21    1
   116   113    42    1
   117   114    29    1
