@<TRIPOS>MOLECULE
RhRh_tBu-O2C4_C2_redo_sp
 66 69 0 0 0
SMALL
GASTEIGER

@<TRIPOS>ATOM
      1 Rh          0.0000   -0.0046   -1.1912 Rh      1  UNL1        0.0000
      2 Rh          0.0000   -0.0260    1.1958 Rh      1  UNL1        0.0000
      3 C          -1.8925   -1.8545   -0.0190 C.3     1  UNL1        0.0000
      4 C          -1.8834    1.8341    0.0242 C.3     1  UNL1        0.0000
      5 C           1.8835    1.8341    0.0242 C.3     1  UNL1        0.0000
      6 C           1.8925   -1.8545   -0.0190 C.3     1  UNL1        0.0000
      7 O          -1.4605    1.4405   -1.1116 O.3     1  UNL1        0.0000
      8 O          -1.4589    1.4226    1.1505 O.3     1  UNL1        0.0000
      9 O           1.4605    1.4405   -1.1116 O.3     1  UNL1        0.0000
     10 O          -1.4609   -1.4503   -1.1455 O.3     1  UNL1        0.0000
     11 O           1.4609   -1.4503   -1.1455 O.3     1  UNL1        0.0000
     12 O           1.4589    1.4226    1.1505 O.3     1  UNL1        0.0000
     13 O           1.4631   -1.4679    1.1165 O.3     1  UNL1        0.0000
     14 O          -1.4631   -1.4679    1.1165 O.3     1  UNL1        0.0000
     15 C          -3.0162    2.8634    0.0106 C.3     1  UNL1        0.0000
     16 C           3.0163    2.8634    0.0106 C.3     1  UNL1        0.0000
     17 C          -3.0601   -2.8441   -0.0109 C.3     1  UNL1        0.0000
     18 C           3.0601   -2.8441   -0.0109 C.3     1  UNL1        0.0000
     19 C          -4.3142   -2.0289    0.3780 C.3     1  UNL1        0.0000
     20 C          -3.2501   -3.4737   -1.3971 C.3     1  UNL1        0.0000
     21 C          -2.7957   -3.9335    1.0433 C.3     1  UNL1        0.0000
     22 C          -3.3070    3.3753    1.4269 C.3     1  UNL1        0.0000
     23 C          -2.6073    4.0298   -0.9089 C.3     1  UNL1        0.0000
     24 C          -4.2608    2.1530   -0.5647 C.3     1  UNL1        0.0000
     25 C           3.3070    3.3753    1.4269 C.3     1  UNL1        0.0000
     26 C           2.6074    4.0297   -0.9089 C.3     1  UNL1        0.0000
     27 C           4.2608    2.1529   -0.5646 C.3     1  UNL1        0.0000
     28 C           4.3142   -2.0290    0.3781 C.3     1  UNL1        0.0000
     29 C           3.2501   -3.4737   -1.3971 C.3     1  UNL1        0.0000
     30 C           2.7957   -3.9335    1.0432 C.3     1  UNL1        0.0000
     31 H          -4.5089   -1.2394   -0.3549 H       1  UNL1        0.0000
     32 H          -5.1882   -2.6870    0.4100 H       1  UNL1        0.0000
     33 H          -4.1883   -1.5676    1.3609 H       1  UNL1        0.0000
     34 H          -2.3599   -4.0300   -1.7037 H       1  UNL1        0.0000
     35 H          -4.0964   -4.1675   -1.3704 H       1  UNL1        0.0000
     36 H          -3.4462   -2.7128   -2.1549 H       1  UNL1        0.0000
     37 H          -1.9012   -4.5129    0.7930 H       1  UNL1        0.0000
     38 H          -2.6518   -3.4952    2.0323 H       1  UNL1        0.0000
     39 H          -3.6453   -4.6225    1.0825 H       1  UNL1        0.0000
     40 H          -4.1225    4.1047    1.3912 H       1  UNL1        0.0000
     41 H          -3.5989    2.5593    2.0915 H       1  UNL1        0.0000
     42 H          -2.4288    3.8609    1.8604 H       1  UNL1        0.0000
     43 H          -1.7164    4.5378   -0.5252 H       1  UNL1        0.0000
     44 H          -2.3905    3.6742   -1.9178 H       1  UNL1        0.0000
     45 H          -3.4189    4.7624   -0.9594 H       1  UNL1        0.0000
     46 H          -4.5587    1.3118    0.0697 H       1  UNL1        0.0000
     47 H          -5.0989    2.8553   -0.6123 H       1  UNL1        0.0000
     48 H          -4.0625    1.7752   -1.5705 H       1  UNL1        0.0000
     49 H           3.5989    2.5593    2.0915 H       1  UNL1        0.0000
     50 H           4.1225    4.1047    1.3912 H       1  UNL1        0.0000
     51 H           2.4288    3.8609    1.8603 H       1  UNL1        0.0000
     52 H           3.4190    4.7624   -0.9594 H       1  UNL1        0.0000
     53 H           2.3906    3.6741   -1.9179 H       1  UNL1        0.0000
     54 H           1.7165    4.5378   -0.5253 H       1  UNL1        0.0000
     55 H           5.0990    2.8552   -0.6122 H       1  UNL1        0.0000
     56 H           4.5587    1.3117    0.0698 H       1  UNL1        0.0000
     57 H           4.0625    1.7751   -1.5704 H       1  UNL1        0.0000
     58 H           4.1883   -1.5677    1.3610 H       1  UNL1        0.0000
     59 H           5.1882   -2.6871    0.4101 H       1  UNL1        0.0000
     60 H           4.5089   -1.2395   -0.3549 H       1  UNL1        0.0000
     61 H           4.0964   -4.1675   -1.3704 H       1  UNL1        0.0000
     62 H           2.3599   -4.0300   -1.7038 H       1  UNL1        0.0000
     63 H           3.4463   -2.7127   -2.1549 H       1  UNL1        0.0000
     64 H           1.9012   -4.5129    0.7929 H       1  UNL1        0.0000
     65 H           3.6452   -4.6225    1.0825 H       1  UNL1        0.0000
     66 H           2.6517   -3.4952    2.0322 H       1  UNL1        0.0000
@<TRIPOS>BOND
     1     1    10    1
     2     1    11    1
     3     1     9    1
     4     1     7    1
     5     1     2    1
     6     3    17    1
     7     3    14    1
     8     4     8    1
     9     5    12    1
    10     6    18    1
    11     6    13    1
    12     7     4    1
    13     8     2    1
    14     9     5    1
    15    10     3    1
    16    11     6    1
    17    12     2    1
    18    13     2    1
    19    14     2    1
    20    15     4    1
    21    15    22    1
    22    16     5    1
    23    16    25    1
    24    17    19    1
    25    17    21    1
    26    18    28    1
    27    18    30    1
    28    19    32    1
    29    19    33    1
    30    20    35    1
    31    20    17    1
    32    21    39    1
    33    21    38    1
    34    22    42    1
    35    22    41    1
    36    23    43    1
    37    23    15    1
    38    24    15    1
    39    24    46    1
    40    25    51    1
    41    25    49    1
    42    26    54    1
    43    26    16    1
    44    27    16    1
    45    27    56    1
    46    28    59    1
    47    28    58    1
    48    29    61    1
    49    29    18    1
    50    30    65    1
    51    30    66    1
    52    31    19    1
    53    34    20    1
    54    36    20    1
    55    37    21    1
    56    40    22    1
    57    44    23    1
    58    45    23    1
    59    47    24    1
    60    48    24    1
    61    50    25    1
    62    52    26    1
    63    53    26    1
    64    55    27    1
    65    57    27    1
    66    60    28    1
    67    62    29    1
    68    63    29    1
    69    64    30    1
