@<TRIPOS>MOLECULE
RhRh_MeMePh-O2C4_C2_sp
 94 101 0 0 0
SMALL
GASTEIGER

@<TRIPOS>ATOM
      1 Rh         -0.0640    0.0586   -1.1300 Rh      1  UNL1        0.0000
      2 Rh         -0.0296   -0.0437    1.2566 Rh      1  UNL1        0.0000
      3 C          -2.5220   -0.8888    0.0707 C.3     1  UNL1        0.0000
      4 C          -0.9108    2.4924    0.1755 C.3     1  UNL1        0.0000
      5 C           2.4486    0.8494    0.0630 C.3     1  UNL1        0.0000
      6 C           0.8399   -2.4686   -0.0639 C.3     1  UNL1        0.0000
      7 O           0.5977   -1.8858   -1.1669 O.3     1  UNL1        0.0000
      8 O           0.5844   -1.9982    1.0921 O.3     1  UNL1        0.0000
      9 O           1.8879    0.6862   -1.0666 O.3     1  UNL1        0.0000
     10 O           1.9286    0.5792    1.1935 O.3     1  UNL1        0.0000
     11 O          -0.7076    1.9977   -0.9768 O.3     1  UNL1        0.0000
     12 O          -0.6511    1.9208    1.2843 O.3     1  UNL1        0.0000
     13 O          -2.0167   -0.5894   -1.0580 O.3     1  UNL1        0.0000
     14 O          -1.9797   -0.6796    1.2023 O.3     1  UNL1        0.0000
     15 C           1.5769   -3.8136   -0.1226 C.3     1  UNL1        0.0000
     16 C           3.0661   -3.4427    0.0474 C.ar    1  UNL1        0.0000
     17 C           4.0031   -3.6479   -0.9713 C.ar    1  UNL1        0.0000
     18 C           5.3440   -3.2991   -0.7949 C.ar    1  UNL1        0.0000
     19 C           5.7734   -2.7370    0.4053 C.ar    1  UNL1        0.0000
     20 C           4.8463   -2.5201    1.4265 C.ar    1  UNL1        0.0000
     21 C           3.5080   -2.8604    1.2458 C.ar    1  UNL1        0.0000
     22 C           3.8401    1.4932    0.0506 C.3     1  UNL1        0.0000
     23 C           3.5781    2.9972   -0.1532 C.ar    1  UNL1        0.0000
     24 C           4.1465    3.7222   -1.2040 C.ar    1  UNL1        0.0000
     25 C           3.9029    5.0904   -1.3431 C.ar    1  UNL1        0.0000
     26 C           3.0846    5.7564   -0.4336 C.ar    1  UNL1        0.0000
     27 C           2.5061    5.0406    0.6166 C.ar    1  UNL1        0.0000
     28 C           2.7460    3.6752    0.7517 C.ar    1  UNL1        0.0000
     29 C          -1.5987    3.8626    0.2205 C.3     1  UNL1        0.0000
     30 C          -3.0972    3.5501    0.0373 C.ar    1  UNL1        0.0000
     31 C          -3.8451    4.0701   -1.0232 C.ar    1  UNL1        0.0000
     32 C          -5.2031    3.7729   -1.1554 C.ar    1  UNL1        0.0000
     33 C          -5.8376    2.9500   -0.2277 C.ar    1  UNL1        0.0000
     34 C          -5.0993    2.4208    0.8326 C.ar    1  UNL1        0.0000
     35 C          -3.7426    2.7104    0.9586 C.ar    1  UNL1        0.0000
     36 C          -3.8583   -1.6438    0.0629 C.3     1  UNL1        0.0000
     37 C          -3.4554   -3.1223   -0.1257 C.ar    1  UNL1        0.0000
     38 C          -2.8351   -3.5288   -1.3172 C.ar    1  UNL1        0.0000
     39 C          -2.4600   -4.8556   -1.5130 C.ar    1  UNL1        0.0000
     40 C          -2.6765   -5.8050   -0.5123 C.ar    1  UNL1        0.0000
     41 C          -3.2759   -5.4101    0.6817 C.ar    1  UNL1        0.0000
     42 C          -3.6620   -4.0816    0.8718 C.ar    1  UNL1        0.0000
     43 C          -1.3677    4.5456    1.5815 C.3     1  UNL1        0.0000
     44 C          -1.0221    4.7462   -0.8971 C.3     1  UNL1        0.0000
     45 C          -4.6038   -1.3940    1.3806 C.3     1  UNL1        0.0000
     46 C          -4.7348   -1.1597   -1.1099 C.3     1  UNL1        0.0000
     47 C           1.1058   -4.7248    1.0295 C.3     1  UNL1        0.0000
     48 C           1.2841   -4.5093   -1.4585 C.3     1  UNL1        0.0000
     49 C           4.6643    0.8544   -1.0793 C.3     1  UNL1        0.0000
     50 C           4.5610    1.2719    1.3935 C.3     1  UNL1        0.0000
     51 H           3.6963   -4.0830   -1.9141 H       1  UNL1        0.0000
     52 H           6.0511   -3.4701   -1.6011 H       1  UNL1        0.0000
     53 H           6.8159   -2.4681    0.5443 H       1  UNL1        0.0000
     54 H           5.1645   -2.0829    2.3681 H       1  UNL1        0.0000
     55 H           2.7949   -2.6560    2.0352 H       1  UNL1        0.0000
     56 H           4.7837    3.2253   -1.9254 H       1  UNL1        0.0000
     57 H           4.3560    5.6332   -2.1673 H       1  UNL1        0.0000
     58 H           2.8974    6.8204   -0.5404 H       1  UNL1        0.0000
     59 H           1.8684    5.5479    1.3342 H       1  UNL1        0.0000
     60 H           2.2729    3.1264    1.5597 H       1  UNL1        0.0000
     61 H          -3.3743    4.7113   -1.7581 H       1  UNL1        0.0000
     62 H          -5.7628    4.1889   -1.9878 H       1  UNL1        0.0000
     63 H          -6.8946    2.7231   -0.3270 H       1  UNL1        0.0000
     64 H          -5.5832    1.7857    1.5681 H       1  UNL1        0.0000
     65 H          -3.1755    2.2700    1.7718 H       1  UNL1        0.0000
     66 H          -2.6278   -2.7974   -2.0890 H       1  UNL1        0.0000
     67 H          -1.9956   -5.1471   -2.4502 H       1  UNL1        0.0000
     68 H          -2.3803   -6.8385   -0.6630 H       1  UNL1        0.0000
     69 H          -3.4484   -6.1350    1.4716 H       1  UNL1        0.0000
     70 H          -4.1266   -3.8020    1.8091 H       1  UNL1        0.0000
     71 H          -1.8893    5.5067    1.5959 H       1  UNL1        0.0000
     72 H          -1.7341    3.9381    2.4087 H       1  UNL1        0.0000
     73 H          -0.3011    4.7242    1.7404 H       1  UNL1        0.0000
     74 H           0.0482    4.8949   -0.7350 H       1  UNL1        0.0000
     75 H          -1.1524    4.2880   -1.8779 H       1  UNL1        0.0000
     76 H          -1.5070    5.7266   -0.8902 H       1  UNL1        0.0000
     77 H          -5.5370   -1.9642    1.3974 H       1  UNL1        0.0000
     78 H          -4.0017   -1.6635    2.2483 H       1  UNL1        0.0000
     79 H          -4.8498   -0.3339    1.4617 H       1  UNL1        0.0000
     80 H          -4.2289   -1.2701   -2.0683 H       1  UNL1        0.0000
     81 H          -5.6614   -1.7403   -1.1334 H       1  UNL1        0.0000
     82 H          -4.9861   -0.1028   -0.9809 H       1  UNL1        0.0000
     83 H           1.6741   -5.6589    1.0071 H       1  UNL1        0.0000
     84 H           1.2449   -4.2546    2.0024 H       1  UNL1        0.0000
     85 H           0.0433   -4.9590    0.9140 H       1  UNL1        0.0000
     86 H           1.8401   -5.4492   -1.5203 H       1  UNL1        0.0000
     87 H           0.2187   -4.7364   -1.5222 H       1  UNL1        0.0000
     88 H           1.5441   -3.8815   -2.3111 H       1  UNL1        0.0000
     89 H           5.6663    1.2920   -1.1095 H       1  UNL1        0.0000
     90 H           4.7715   -0.2180   -0.8959 H       1  UNL1        0.0000
     91 H           4.1849    0.9881   -2.0497 H       1  UNL1        0.0000
     92 H           5.5329    1.7728    1.3645 H       1  UNL1        0.0000
     93 H           3.9887    1.6728    2.2302 H       1  UNL1        0.0000
     94 H           4.7198    0.2052    1.5660 H       1  UNL1        0.0000
@<TRIPOS>BOND
     1     1     9    1
     2     1    13    1
     3     1    11    1
     4     1     2    1
     5     2    12    1
     6     3    14    1
     7     4    29    1
     8     4    12    1
     9     5    10    1
    10     6     8    1
    11     7     1    1
    12     7     6    1
    13     8     2    1
    14     9     5    1
    15    10     2    1
    16    11     4    1
    17    13     3    1
    18    14     2    1
    19    15     6    1
    20    15    16    1
    21    15    47    1
    22    16    21   ar
    23    17    18   ar
    24    17    16   ar
    25    18    19   ar
    26    19    53    1
    27    19    20   ar
    28    20    54    1
    29    21    20   ar
    30    21    55    1
    31    22     5    1
    32    22    50    1
    33    23    22    1
    34    23    28   ar
    35    24    23   ar
    36    25    24   ar
    37    25    26   ar
    38    26    27   ar
    39    27    28   ar
    40    27    59    1
    41    28    60    1
    42    29    43    1
    43    30    29    1
    44    30    35   ar
    45    31    30   ar
    46    32    31   ar
    47    32    33   ar
    48    33    34   ar
    49    34    35   ar
    50    34    64    1
    51    35    65    1
    52    36     3    1
    53    36    45    1
    54    37    36    1
    55    37    42   ar
    56    38    37   ar
    57    39    38   ar
    58    39    40   ar
    59    40    41   ar
    60    41    42   ar
    61    41    69    1
    62    42    70    1
    63    43    71    1
    64    43    73    1
    65    43    72    1
    66    44    76    1
    67    44    74    1
    68    44    29    1
    69    45    77    1
    70    45    79    1
    71    45    78    1
    72    46    82    1
    73    46    36    1
    74    47    84    1
    75    48    15    1
    76    49    90    1
    77    49    22    1
    78    50    94    1
    79    50    93    1
    80    51    17    1
    81    52    18    1
    82    56    24    1
    83    57    25    1
    84    58    26    1
    85    61    31    1
    86    62    32    1
    87    63    33    1
    88    66    38    1
    89    67    39    1
    90    68    40    1
    91    75    44    1
    92    80    46    1
    93    81    46    1
    94    83    47    1
    95    85    47    1
    96    86    48    1
    97    87    48    1
    98    88    48    1
    99    89    49    1
   100    91    49    1
   101    92    50    1
