@<TRIPOS>MOLECULE
RhRh_ACB4_20_sp
 114 129 0 0 0
SMALL
GASTEIGER

@<TRIPOS>ATOM
      1 Rh          0.1567   -0.0336    0.4380 Rh      1  UNL1        0.0000
      2 Rh         -1.1495   -0.1373   -1.5655 Rh      1  UNL1        0.0000
      3 C           0.6962   -2.3386   -1.2030 C.3     1  UNL1        0.0000
      4 C          -1.6472    2.1890    0.0481 C.3     1  UNL1        0.0000
      5 C          -2.3346   -1.4400    0.7267 C.3     1  UNL1        0.0000
      6 C           1.3670    1.2375   -1.8544 C.3     1  UNL1        0.0000
      7 O           1.5403    1.0543   -0.6071 O.3     1  UNL1        0.0000
      8 O           0.3266    0.9439   -2.5174 O.3     1  UNL1        0.0000
      9 O          -0.8291    1.7047    0.8915 O.3     1  UNL1        0.0000
     10 O          -2.0694    1.6124   -1.0011 O.3     1  UNL1        0.0000
     11 O          -1.2870   -1.1576    1.3807 O.3     1  UNL1        0.0000
     12 O          -2.5433   -1.1983   -0.5062 O.3     1  UNL1        0.0000
     13 O           1.0869   -1.7678   -0.1368 O.3     1  UNL1        0.0000
     14 O          -0.1560   -1.8849   -2.0268 O.3     1  UNL1        0.0000
     15 N           3.7574    1.5558   -1.8830 N.am    1  UNL1        0.0000
     16 N          -1.0694    4.3025    1.0331 N.am    1  UNL1        0.0000
     17 N          -4.7237   -1.6808    0.8984 N.am    1  UNL1        0.0000
     18 N           1.9403   -4.2049   -0.3037 N.am    1  UNL1        0.0000
     19 C           2.5311    1.8610   -2.6190 C.3     1  UNL1        0.0000
     20 C           2.3593    3.3509   -3.0591 C.3     1  UNL1        0.0000
     21 C           2.9593    2.9880   -4.4363 C.3     1  UNL1        0.0000
     22 C           2.6597    1.5017   -4.1291 C.3     1  UNL1        0.0000
     23 C           4.0655    0.1880   -1.6756 C.2     1  UNL1        0.0000
     24 C           5.1281    0.1465   -0.6405 C.ar    1  UNL1        0.0000
     25 C           5.8007   -0.9322   -0.0844 C.ar    1  UNL1        0.0000
     26 C           6.7413   -0.6452    0.9133 C.ar    1  UNL1        0.0000
     27 C           6.9867    0.6700    1.3280 C.ar    1  UNL1        0.0000
     28 C           6.2953    1.7475    0.7603 C.ar    1  UNL1        0.0000
     29 C           5.3665    1.4564   -0.2260 C.ar    1  UNL1        0.0000
     30 C           4.4584    2.3711   -0.9774 C.2     1  UNL1        0.0000
     31 C          -2.1405    3.6107    0.3339 C.3     1  UNL1        0.0000
     32 C          -3.5733    3.6310    0.9553 C.3     1  UNL1        0.0000
     33 C          -4.1415    3.8617   -0.4682 C.3     1  UNL1        0.0000
     34 C          -2.7293    4.3090   -0.9205 C.3     1  UNL1        0.0000
     35 C          -0.9497    4.4475    2.4327 C.2     1  UNL1        0.0000
     36 C           0.4781    4.8093    2.6742 C.ar    1  UNL1        0.0000
     37 C           1.1319    5.0983    3.8614 C.ar    1  UNL1        0.0000
     38 C           2.5088    5.3466    3.7922 C.ar    1  UNL1        0.0000
     39 C           3.1927    5.2960    2.5711 C.ar    1  UNL1        0.0000
     40 C           2.5250    5.0053    1.3746 C.ar    1  UNL1        0.0000
     41 C           1.1603    4.7725    1.4568 C.ar    1  UNL1        0.0000
     42 C           0.1852    4.4042    0.4001 C.2     1  UNL1        0.0000
     43 C          -3.4596   -2.1623    1.4579 C.3     1  UNL1        0.0000
     44 C          -3.4528   -2.1284    3.0110 C.3     1  UNL1        0.0000
     45 C          -3.7739   -3.6424    3.0263 C.3     1  UNL1        0.0000
     46 C          -3.3138   -3.7173    1.5513 C.3     1  UNL1        0.0000
     47 C          -4.9995   -0.3029    1.0105 C.2     1  UNL1        0.0000
     48 C          -6.1415   -0.0211    0.1065 C.ar    1  UNL1        0.0000
     49 C          -6.8325    1.1577   -0.1302 C.ar    1  UNL1        0.0000
     50 C          -7.8555    1.1190   -1.0853 C.ar    1  UNL1        0.0000
     51 C          -8.1616   -0.0645   -1.7694 C.ar    1  UNL1        0.0000
     52 C          -7.4546   -1.2479   -1.5223 C.ar    1  UNL1        0.0000
     53 C          -6.4438   -1.1986   -0.5753 C.ar    1  UNL1        0.0000
     54 C          -5.5044   -2.2685   -0.1231 C.2     1  UNL1        0.0000
     55 C           1.2983   -3.7097   -1.5102 C.3     1  UNL1        0.0000
     56 C           2.1247   -3.7218   -2.8354 C.3     1  UNL1        0.0000
     57 C           0.8845   -4.2869   -3.5713 C.3     1  UNL1        0.0000
     58 C           0.2803   -4.6671   -2.1972 C.3     1  UNL1        0.0000
     59 C           1.1561   -4.4904    0.8321 C.2     1  UNL1        0.0000
     60 C           2.1020   -4.5851    1.9762 C.ar    1  UNL1        0.0000
     61 C           1.8709   -4.8793    3.3108 C.ar    1  UNL1        0.0000
     62 C           2.9737   -4.8573    4.1737 C.ar    1  UNL1        0.0000
     63 C           4.2559   -4.5506    3.7008 C.ar    1  UNL1        0.0000
     64 C           4.4771   -4.2565    2.3496 C.ar    1  UNL1        0.0000
     65 C           3.3788   -4.2792    1.5048 C.ar    1  UNL1        0.0000
     66 C           3.2851   -3.9884    0.0450 C.2     1  UNL1        0.0000
     67 H           1.2934    3.5720   -3.1149 H       1  UNL1        0.0000
     68 H           2.8486    4.0964   -2.4413 H       1  UNL1        0.0000
     69 H           4.0334    3.1896   -4.4774 H       1  UNL1        0.0000
     70 H           2.4851    3.4227   -5.3191 H       1  UNL1        0.0000
     71 H           3.4108    0.7506   -4.3720 H       1  UNL1        0.0000
     72 H           1.6892    1.1830   -4.5103 H       1  UNL1        0.0000
     73 H           7.7210    0.8546    2.1059 H       1  UNL1        0.0000
     74 H           6.4669    2.7703    1.0775 H       1  UNL1        0.0000
     75 H          -3.8778    2.7419    1.5059 H       1  UNL1        0.0000
     76 H          -3.6815    4.5074    1.5930 H       1  UNL1        0.0000
     77 H          -4.4377    2.9259   -0.9465 H       1  UNL1        0.0000
     78 H          -4.9512    4.5892   -0.5661 H       1  UNL1        0.0000
     79 H          -2.5912    5.3888   -0.8297 H       1  UNL1        0.0000
     80 H          -2.3539    3.9655   -1.8831 H       1  UNL1        0.0000
     81 H           3.0581    5.5726    4.7009 H       1  UNL1        0.0000
     82 H           4.2626    5.4781    2.5517 H       1  UNL1        0.0000
     83 H           3.0530    4.9327    0.4314 H       1  UNL1        0.0000
     84 H          -2.4452   -1.9078    3.3644 H       1  UNL1        0.0000
     85 H          -4.1558   -1.4355    3.4725 H       1  UNL1        0.0000
     86 H          -3.2341   -4.2606    3.7473 H       1  UNL1        0.0000
     87 H          -4.8454   -3.8349    3.1295 H       1  UNL1        0.0000
     88 H          -3.8992   -4.2963    0.8431 H       1  UNL1        0.0000
     89 H          -2.2584   -3.9822    1.4648 H       1  UNL1        0.0000
     90 H          -6.5809    2.0683    0.4020 H       1  UNL1        0.0000
     91 H          -8.4193    2.0203   -1.3035 H       1  UNL1        0.0000
     92 H          -8.9581   -0.0604   -2.5067 H       1  UNL1        0.0000
     93 H          -7.6759   -2.1688   -2.0507 H       1  UNL1        0.0000
     94 H           2.5414   -2.7645   -3.1435 H       1  UNL1        0.0000
     95 H           2.9318   -4.4495   -2.7565 H       1  UNL1        0.0000
     96 H           0.3061   -3.5035   -4.0628 H       1  UNL1        0.0000
     97 H           1.0622   -5.1025   -4.2760 H       1  UNL1        0.0000
     98 H           0.5021   -5.6980   -1.9134 H       1  UNL1        0.0000
     99 H          -0.7727   -4.4568   -2.0151 H       1  UNL1        0.0000
    100 H           0.8720   -5.1099    3.6646 H       1  UNL1        0.0000
    101 H           5.4644   -4.0134    1.9720 H       1  UNL1        0.0000
    102 O           0.3720    4.1861   -0.7823 O.2     1  UNL1        0.0000
    103 O          -1.8327    4.3010    3.2510 O.2     1  UNL1        0.0000
    104 O          -4.3623    0.4697    1.7017 O.2     1  UNL1        0.0000
    105 O          -5.4336   -3.4044   -0.5419 O.2     1  UNL1        0.0000
    106 O           4.1764   -3.6445   -0.7061 O.2     1  UNL1        0.0000
    107 O          -0.0530   -4.6079    0.8273 O.2     1  UNL1        0.0000
    108 O           4.3608    3.5759   -0.8376 O.2     1  UNL1        0.0000
    109 O           3.5083   -0.7286   -2.2446 O.2     1  UNL1        0.0000
    110 H           5.5830   -1.9469   -0.3994 H       1  UNL1        0.0000
    111 H           7.2910   -1.4580    1.3783 H       1  UNL1        0.0000
    112 H           0.5923    5.1176    4.8021 H       1  UNL1        0.0000
    113 H           2.8346   -5.0775    5.2272 H       1  UNL1        0.0000
    114 H           5.0893   -4.5385    4.3959 H       1  UNL1        0.0000
@<TRIPOS>BOND
     1     1     9    1
     2     1    11    1
     3     2    10    1
     4     2    12    1
     5     2     1    1
     6     3    13    1
     7     4    31    1
     8     4     9    1
     9     5    11    1
    10     5    43    1
    11     6     7    1
    12     7     1    1
    13     8     6    1
    14     8     2    1
    15    10     4    1
    16    12     5    1
    17    13     1    1
    18    14     2    1
    19    14     3    1
    20    15    23   am
    21    15    30   am
    22    16    35   am
    23    17    47   am
    24    17    43    1
    25    18    66   am
    26    18    59   am
    27    19    15    1
    28    19     6    1
    29    20    19    1
    30    20    68    1
    31    21    22    1
    32    21    20    1
    33    22    19    1
    34    23    24    1
    35    24    29   ar
    36    24    25   ar
    37    25    26   ar
    38    26    27   ar
    39    26   111    1
    40    27    73    1
    41    28    74    1
    42    28    27   ar
    43    29    28   ar
    44    30   108    2
    45    30    29    1
    46    31    32    1
    47    31    16    1
    48    32    75    1
    49    32    76    1
    50    33    32    1
    51    34    79    1
    52    34    33    1
    53    34    31    1
    54    35    36    1
    55    35   103    2
    56    36    37   ar
    57    37   112    1
    58    38    37   ar
    59    38    81    1
    60    39    38   ar
    61    40    41   ar
    62    40    39   ar
    63    41    36   ar
    64    42    16   am
    65    42    41    1
    66    43    46    1
    67    43    44    1
    68    44    45    1
    69    44    84    1
    70    44    85    1
    71    45    87    1
    72    45    86    1
    73    46    45    1
    74    47   104    2
    75    48    47    1
    76    49    48   ar
    77    49    90    1
    78    50    49   ar
    79    51    52   ar
    80    51    50   ar
    81    52    53   ar
    82    53    54    1
    83    53    48   ar
    84    54    17   am
    85    55     3    1
    86    55    18    1
    87    56    95    1
    88    56    55    1
    89    57    56    1
    90    57    58    1
    91    58    99    1
    92    58    98    1
    93    58    55    1
    94    59    60    1
    95    60    61   ar
    96    61   100    1
    97    61    62   ar
    98    62   113    1
    99    63    62   ar
   100    63   114    1
   101    64    63   ar
   102    65    60   ar
   103    65    64   ar
   104    66    65    1
   105    67    20    1
   106    69    21    1
   107    70    21    1
   108    71    22    1
   109    72    22    1
   110    77    33    1
   111    78    33    1
   112    80    34    1
   113    82    39    1
   114    83    40    1
   115    88    46    1
   116    89    46    1
   117    91    50    1
   118    92    51    1
   119    93    52    1
   120    94    56    1
   121    96    57    1
   122    97    57    1
   123   101    64    1
   124   102    42    2
   125   105    54    2
   126   106    66    2
   127   107    59    2
   128   109    23    2
   129   110    25    1
