@<TRIPOS>MOLECULE
RhRh_ACyPentyl4_9_sp
 126 141 0 0 0
SMALL
GASTEIGER

@<TRIPOS>ATOM
      1 Rh          1.2014   -0.2422    1.1668 Rh      1  UNL1        0.0000
      2 Rh          0.1655    0.4518   -0.8747 Rh      1  UNL1        0.0000
      3 C           3.0046    0.0498   -1.0751 C.3     1  UNL1        0.0000
      4 C           0.1609   -2.4001   -0.4502 C.3     1  UNL1        0.0000
      5 C          -1.6328    0.2235    1.3657 C.3     1  UNL1        0.0000
      6 C           1.1523    2.6132    0.7612 C.3     1  UNL1        0.0000
      7 O           2.9937   -0.2441    0.1618 O.3     1  UNL1        0.0000
      8 O           1.9873    0.2390   -1.8098 O.3     1  UNL1        0.0000
      9 O           1.5047    1.7502    1.6180 O.3     1  UNL1        0.0000
     10 O           0.6818    2.3759   -0.3984 O.3     1  UNL1        0.0000
     11 O          -1.5710    0.6867    0.1831 O.3     1  UNL1        0.0000
     12 O          -0.6528   -0.1795    2.0617 O.3     1  UNL1        0.0000
     13 O          -0.2923   -1.5169   -1.2424 O.3     1  UNL1        0.0000
     14 O           0.8355   -2.1785    0.6026 O.3     1  UNL1        0.0000
     15 N           5.3538   -0.5096   -0.9509 N.am    1  UNL1        0.0000
     16 N           0.1509    4.7795    0.5339 N.am    1  UNL1        0.0000
     17 N          -4.0023    0.1829    0.9176 N.am    1  UNL1        0.0000
     18 N          -1.5251   -4.1699   -0.4719 N.am    1  UNL1        0.0000
     19 C           4.3796    0.2775   -1.7133 C.3     1  UNL1        0.0000
     20 C           4.6707    1.8053   -1.7063 C.3     1  UNL1        0.0000
     21 C           3.8624    2.3479   -2.8909 C.3     1  UNL1        0.0000
     22 C           3.8827    1.2193   -3.9524 C.3     1  UNL1        0.0000
     23 C           4.3864   -0.0532   -3.2275 C.3     1  UNL1        0.0000
     24 C           6.0464   -0.0662    0.2031 C.2     1  UNL1        0.0000
     25 C           6.5997   -1.2941    0.8415 C.ar    1  UNL1        0.0000
     26 C           7.4056   -1.4281    1.9615 C.ar    1  UNL1        0.0000
     27 C           7.7465   -2.7281    2.3544 C.ar    1  UNL1        0.0000
     28 C           7.2865   -3.8442    1.6432 C.ar    1  UNL1        0.0000
     29 C           6.4715   -3.6966    0.5146 C.ar    1  UNL1        0.0000
     30 C           6.1450   -2.4041    0.1335 C.ar    1  UNL1        0.0000
     31 C           5.2876   -1.9193   -0.9777 C.2     1  UNL1        0.0000
     32 C           1.3246    4.1026    1.1039 C.3     1  UNL1        0.0000
     33 C           1.4728    4.3379    2.6238 C.3     1  UNL1        0.0000
     34 C           2.9696    4.1004    2.9428 C.3     1  UNL1        0.0000
     35 C           3.6941    4.0168    1.5735 C.3     1  UNL1        0.0000
     36 C           2.6925    4.5775    0.5525 C.3     1  UNL1        0.0000
     37 C          -1.1302    4.3140    0.9052 C.2     1  UNL1        0.0000
     38 C          -2.0890    4.8575   -0.0866 C.ar    1  UNL1        0.0000
     39 C          -3.4655    4.7081   -0.1782 C.ar    1  UNL1        0.0000
     40 C          -4.0963    5.3065   -1.2759 C.ar    1  UNL1        0.0000
     41 C          -3.3662    6.0224   -2.2336 C.ar    1  UNL1        0.0000
     42 C          -1.9761    6.1587   -2.1309 C.ar    1  UNL1        0.0000
     43 C          -1.3585    5.5602   -1.0437 C.ar    1  UNL1        0.0000
     44 C           0.0900    5.4781   -0.6957 C.2     1  UNL1        0.0000
     45 C          -3.0206    0.1619    2.0203 C.3     1  UNL1        0.0000
     46 C          -3.2284   -1.1359    2.8801 C.3     1  UNL1        0.0000
     47 C          -3.6074   -0.6565    4.2968 C.3     1  UNL1        0.0000
     48 C          -4.1370    0.7688    4.0906 C.3     1  UNL1        0.0000
     49 C          -3.1787    1.3239    3.0365 C.3     1  UNL1        0.0000
     50 C          -4.8925    1.1867    0.5009 C.2     1  UNL1        0.0000
     51 C          -5.3932    0.7543   -0.8409 C.ar    1  UNL1        0.0000
     52 C          -6.3006    1.3649   -1.6914 C.ar    1  UNL1        0.0000
     53 C          -6.5477    0.7393   -2.9208 C.ar    1  UNL1        0.0000
     54 C          -5.8983   -0.4507   -3.2747 C.ar    1  UNL1        0.0000
     55 C          -4.9822   -1.0629   -2.4092 C.ar    1  UNL1        0.0000
     56 C          -4.7572   -0.4349   -1.1933 C.ar    1  UNL1        0.0000
     57 C          -3.8519   -0.7992   -0.0830 C.2     1  UNL1        0.0000
     58 C          -0.1253   -3.8755   -0.8217 C.3     1  UNL1        0.0000
     59 C           0.8688   -4.8289   -0.1230 C.3     1  UNL1        0.0000
     60 C           2.1696   -4.7089   -0.9486 C.3     1  UNL1        0.0000
     61 C           1.7523   -4.0903   -2.3111 C.3     1  UNL1        0.0000
     62 C           0.2154   -4.0917   -2.3119 C.3     1  UNL1        0.0000
     63 C          -2.6352   -4.1322   -1.3451 C.2     1  UNL1        0.0000
     64 C          -3.8296   -4.4242   -0.5008 C.ar    1  UNL1        0.0000
     65 C          -5.1643   -4.5294   -0.8565 C.ar    1  UNL1        0.0000
     66 C          -6.0904   -4.7332    0.1743 C.ar    1  UNL1        0.0000
     67 C          -5.6777   -4.8238    1.5098 C.ar    1  UNL1        0.0000
     68 C          -4.3248   -4.7164    1.8555 C.ar    1  UNL1        0.0000
     69 C          -3.4200   -4.5194    0.8248 C.ar    1  UNL1        0.0000
     70 C          -1.9493   -4.3060    0.8721 C.2     1  UNL1        0.0000
     71 H           4.4371    2.2786   -0.7542 H       1  UNL1        0.0000
     72 H           5.7443    1.9306   -1.8725 H       1  UNL1        0.0000
     73 H           4.2847    3.2863   -3.2600 H       1  UNL1        0.0000
     74 H           2.8359    2.5545   -2.5780 H       1  UNL1        0.0000
     75 H           4.5462    1.4673   -4.7861 H       1  UNL1        0.0000
     76 H           2.8852    1.0610   -4.3666 H       1  UNL1        0.0000
     77 H           5.4230   -0.2737   -3.4987 H       1  UNL1        0.0000
     78 H           3.7954   -0.9390   -3.4490 H       1  UNL1        0.0000
     79 H           7.7473   -0.5558    2.5079 H       1  UNL1        0.0000
     80 H           8.3735   -2.8768    3.2277 H       1  UNL1        0.0000
     81 H           7.5644   -4.8386    1.9776 H       1  UNL1        0.0000
     82 H           6.1006   -4.5509   -0.0411 H       1  UNL1        0.0000
     83 H           1.1915    5.3784    2.8117 H       1  UNL1        0.0000
     84 H           0.7992    3.7003    3.1928 H       1  UNL1        0.0000
     85 H           3.1066    3.1771    3.5089 H       1  UNL1        0.0000
     86 H           3.3638    4.9188    3.5522 H       1  UNL1        0.0000
     87 H           4.6347    4.5728    1.5550 H       1  UNL1        0.0000
     88 H           3.9377    2.9759    1.3424 H       1  UNL1        0.0000
     89 H           2.8692    4.2574   -0.4749 H       1  UNL1        0.0000
     90 H           2.6985    5.6696    0.5566 H       1  UNL1        0.0000
     91 H          -1.3962    6.6978   -2.8720 H       1  UNL1        0.0000
     92 H          -2.3397   -1.7657    2.8652 H       1  UNL1        0.0000
     93 H          -4.0412   -1.7132    2.4371 H       1  UNL1        0.0000
     94 H          -4.3272   -1.3254    4.7777 H       1  UNL1        0.0000
     95 H          -2.7151   -0.6241    4.9319 H       1  UNL1        0.0000
     96 H          -5.1594    0.7557    3.6941 H       1  UNL1        0.0000
     97 H          -4.1431    1.3673    5.0061 H       1  UNL1        0.0000
     98 H          -3.4818    2.2555    2.5725 H       1  UNL1        0.0000
     99 H          -2.1931    1.4798    3.4840 H       1  UNL1        0.0000
    100 H          -6.7898    2.2917   -1.4119 H       1  UNL1        0.0000
    101 H          -7.2495    1.1874   -3.6171 H       1  UNL1        0.0000
    102 H          -6.1050   -0.9009   -4.2404 H       1  UNL1        0.0000
    103 H          -4.4529   -1.9728   -2.6749 H       1  UNL1        0.0000
    104 H           0.4476   -5.8368   -0.1999 H       1  UNL1        0.0000
    105 H           0.9929   -4.5930    0.9301 H       1  UNL1        0.0000
    106 H           2.8959   -4.0652   -0.4491 H       1  UNL1        0.0000
    107 H           2.6402   -5.6883   -1.0726 H       1  UNL1        0.0000
    108 H           2.1572   -4.6355   -3.1672 H       1  UNL1        0.0000
    109 H           2.1303   -3.0667   -2.3863 H       1  UNL1        0.0000
    110 H          -0.2303   -3.3399   -2.9581 H       1  UNL1        0.0000
    111 H          -0.1772   -5.0688   -2.6091 H       1  UNL1        0.0000
    112 H          -3.9893   -4.7735    2.8853 H       1  UNL1        0.0000
    113 O          -1.2404   -4.2443    1.8553 O.2     1  UNL1        0.0000
    114 O          -2.6262   -3.9110   -2.5395 O.2     1  UNL1        0.0000
    115 O          -3.0862   -1.7381   -0.0010 O.2     1  UNL1        0.0000
    116 O          -5.2095    2.1968    1.1020 O.2     1  UNL1        0.0000
    117 O           1.0250    5.9165   -1.3315 O.2     1  UNL1        0.0000
    118 O          -1.3475    3.5729    1.8449 O.2     1  UNL1        0.0000
    119 O           4.6223   -2.5767   -1.7544 O.2     1  UNL1        0.0000
    120 O           6.1621    1.0780    0.5885 O.2     1  UNL1        0.0000
    121 H          -4.0246    4.1355    0.5532 H       1  UNL1        0.0000
    122 H          -5.1713    5.2086   -1.3894 H       1  UNL1        0.0000
    123 H          -3.8873    6.4714   -3.0733 H       1  UNL1        0.0000
    124 H          -5.4731   -4.4466   -1.8929 H       1  UNL1        0.0000
    125 H          -7.1463   -4.8180   -0.0624 H       1  UNL1        0.0000
    126 H          -6.4202   -4.9766    2.2866 H       1  UNL1        0.0000
@<TRIPOS>BOND
     1     1     9    1
     2     1    12    1
     3     2    10    1
     4     2    11    1
     5     2     1    1
     6     3     7    1
     7     4    14    1
     8     5    45    1
     9     5    12    1
    10     6    32    1
    11     6     9    1
    12     7     1    1
    13     8     3    1
    14     8     2    1
    15    10     6    1
    16    11     5    1
    17    13     2    1
    18    13     4    1
    19    14     1    1
    20    15    24   am
    21    16    37   am
    22    16    32    1
    23    17    45    1
    24    18    70   am
    25    19    20    1
    26    19     3    1
    27    19    15    1
    28    20    71    1
    29    21    74    1
    30    21    20    1
    31    22    23    1
    32    22    21    1
    33    23    19    1
    34    24   120    2
    35    24    25    1
    36    25    26   ar
    37    26    27   ar
    38    26    79    1
    39    27    80    1
    40    28    81    1
    41    28    27   ar
    42    29    28   ar
    43    30    29   ar
    44    30    25   ar
    45    31    15   am
    46    31    30    1
    47    32    33    1
    48    33    83    1
    49    33    34    1
    50    33    84    1
    51    34    85    1
    52    34    86    1
    53    35    34    1
    54    36    90    1
    55    36    32    1
    56    36    35    1
    57    37   118    2
    58    38    37    1
    59    39    38   ar
    60    39   121    1
    61    40    39   ar
    62    41    42   ar
    63    41    40   ar
    64    42    43   ar
    65    43    44    1
    66    43    38   ar
    67    44    16   am
    68    45    46    1
    69    45    49    1
    70    46    47    1
    71    47    94    1
    72    47    95    1
    73    48    47    1
    74    48    97    1
    75    49    99    1
    76    49    48    1
    77    50    17   am
    78    50   116    2
    79    51    50    1
    80    52   100    1
    81    52    51   ar
    82    53    52   ar
    83    54    53   ar
    84    54    55   ar
    85    55    56   ar
    86    56    51   ar
    87    56    57    1
    88    57   115    2
    89    57    17   am
    90    58    18    1
    91    58     4    1
    92    58    59    1
    93    59   105    1
    94    60   106    1
    95    60    59    1
    96    61    60    1
    97    62    61    1
    98    62    58    1
    99    63    64    1
   100    63    18   am
   101    64    69   ar
   102    65    64   ar
   103    65    66   ar
   104    66    67   ar
   105    67    68   ar
   106    67   126    1
   107    68   112    1
   108    69    70    1
   109    69    68   ar
   110    70   113    2
   111    72    20    1
   112    73    21    1
   113    75    22    1
   114    76    22    1
   115    77    23    1
   116    78    23    1
   117    82    29    1
   118    87    35    1
   119    88    35    1
   120    89    36    1
   121    91    42    1
   122    92    46    1
   123    93    46    1
   124    96    48    1
   125    98    49    1
   126   101    53    1
   127   102    54    1
   128   103    55    1
   129   104    59    1
   130   107    60    1
   131   108    61    1
   132   109    61    1
   133   110    62    1
   134   111    62    1
   135   114    63    2
   136   117    44    2
   137   119    31    2
   138   122    40    1
   139   123    41    1
   140   124    65    1
   141   125    66    1
