@<TRIPOS>MOLECULE
RhRh_ACyPentyl4_3_sp
 126 141 0 0 0
SMALL
GASTEIGER

@<TRIPOS>ATOM
      1 Rh         -0.9028   -0.5403    1.0511 Rh      1  UNL1        0.0000
      2 Rh         -0.0598    0.1276   -1.0856 Rh      1  UNL1        0.0000
      3 C           1.6641    0.7553    1.1433 C.3     1  UNL1        0.0000
      4 C           0.7619   -2.5165   -0.2578 C.3     1  UNL1        0.0000
      5 C          -2.6267   -1.2031   -1.1744 C.3     1  UNL1        0.0000
      6 C          -1.7056    2.1007    0.2230 C.3     1  UNL1        0.0000
      7 O           0.7801    0.2642    1.9081 O.3     1  UNL1        0.0000
      8 O           1.5530    0.9314   -0.1107 O.3     1  UNL1        0.0000
      9 O          -1.8784    1.2729    1.1662 O.3     1  UNL1        0.0000
     10 O          -1.0777    1.8880   -0.8635 O.3     1  UNL1        0.0000
     11 O          -1.7488   -0.7089   -1.9453 O.3     1  UNL1        0.0000
     12 O          -2.5299   -1.3413    0.0848 O.3     1  UNL1        0.0000
     13 O           0.9174   -1.6870   -1.2062 O.3     1  UNL1        0.0000
     14 O           0.1029   -2.3121    0.8078 O.3     1  UNL1        0.0000
     15 N           4.0017    1.1418    0.6966 N.am    1  UNL1        0.0000
     16 N          -1.3918    4.4790   -0.0233 N.am    1  UNL1        0.0000
     17 N          -4.9456   -1.8121   -0.7828 N.am    1  UNL1        0.0000
     18 N           2.7920   -3.8734    0.0325 N.am    1  UNL1        0.0000
     19 C           3.0171    1.1202    1.7867 C.3     1  UNL1        0.0000
     20 C           3.3866    0.0783    2.8843 C.3     1  UNL1        0.0000
     21 C           2.7665    0.6044    4.2020 C.3     1  UNL1        0.0000
     22 C           2.2488    2.0310    3.8962 C.3     1  UNL1        0.0000
     23 C           2.9399    2.4402    2.5911 C.3     1  UNL1        0.0000
     24 C           4.4828    2.2666   -0.0054 C.2     1  UNL1        0.0000
     25 C           5.1361    1.7284   -1.2359 C.ar    1  UNL1        0.0000
     26 C           5.8128    2.3917   -2.2471 C.ar    1  UNL1        0.0000
     27 C           6.2762    1.6204   -3.3208 C.ar    1  UNL1        0.0000
     28 C           6.0520    0.2384   -3.3720 C.ar    1  UNL1        0.0000
     29 C           5.3642   -0.4254   -2.3479 C.ar    1  UNL1        0.0000
     30 C           4.9260    0.3508   -1.2844 C.ar    1  UNL1        0.0000
     31 C           4.1579   -0.0260   -0.0767 C.2     1  UNL1        0.0000
     32 C          -2.4027    3.4674    0.3188 C.3     1  UNL1        0.0000
     33 C          -3.6101    3.4090   -0.6889 C.3     1  UNL1        0.0000
     34 C          -4.8460    3.7971    0.1342 C.3     1  UNL1        0.0000
     35 C          -4.5027    3.3162    1.5513 C.3     1  UNL1        0.0000
     36 C          -3.0353    3.7323    1.7077 C.3     1  UNL1        0.0000
     37 C          -0.0636    4.3504    0.4156 C.2     1  UNL1        0.0000
     38 C           0.6785    5.5135   -0.1309 C.ar    1  UNL1        0.0000
     39 C           2.0314    5.8162   -0.0910 C.ar    1  UNL1        0.0000
     40 C           2.4295    7.0140   -0.7003 C.ar    1  UNL1        0.0000
     41 C           1.5001    7.8625   -1.3138 C.ar    1  UNL1        0.0000
     42 C           0.1371    7.5386   -1.3519 C.ar    1  UNL1        0.0000
     43 C          -0.2483    6.3492   -0.7558 C.ar    1  UNL1        0.0000
     44 C          -1.6002    5.7207   -0.6546 C.2     1  UNL1        0.0000
     45 C          -3.9068   -1.7380   -1.8265 C.3     1  UNL1        0.0000
     46 C          -4.4154   -0.9001   -3.0216 C.3     1  UNL1        0.0000
     47 C          -5.3603   -1.8597   -3.7698 C.3     1  UNL1        0.0000
     48 C          -4.8171   -3.2891   -3.4844 C.3     1  UNL1        0.0000
     49 C          -3.6279   -3.0913   -2.5258 C.3     1  UNL1        0.0000
     50 C          -5.4211   -2.9553   -0.1002 C.2     1  UNL1        0.0000
     51 C          -6.2348   -2.4421    1.0395 C.ar    1  UNL1        0.0000
     52 C          -6.9535   -3.1363    2.0000 C.ar    1  UNL1        0.0000
     53 C          -7.6115   -2.3804    2.9782 C.ar    1  UNL1        0.0000
     54 C          -7.5420   -0.9812    2.9814 C.ar    1  UNL1        0.0000
     55 C          -6.8133   -0.2909    2.0052 C.ar    1  UNL1        0.0000
     56 C          -6.1677   -1.0515    1.0423 C.ar    1  UNL1        0.0000
     57 C          -5.3134   -0.6346   -0.0959 C.2     1  UNL1        0.0000
     58 C           1.3969   -3.9218   -0.4324 C.3     1  UNL1        0.0000
     59 C           1.2413   -4.3778   -1.8982 C.3     1  UNL1        0.0000
     60 C          -0.2572   -4.7140   -2.0018 C.3     1  UNL1        0.0000
     61 C          -0.6982   -5.1423   -0.5719 C.3     1  UNL1        0.0000
     62 C           0.5531   -4.9773    0.3151 C.3     1  UNL1        0.0000
     63 C           3.9296   -3.6677   -0.7790 C.2     1  UNL1        0.0000
     64 C           5.0912   -3.5931    0.1510 C.ar    1  UNL1        0.0000
     65 C           6.4393   -3.4282   -0.1224 C.ar    1  UNL1        0.0000
     66 C           7.3081   -3.3228    0.9710 C.ar    1  UNL1        0.0000
     67 C           6.8270   -3.3802    2.2852 C.ar    1  UNL1        0.0000
     68 C           5.4617   -3.5479    2.5472 C.ar    1  UNL1        0.0000
     69 C           4.6148   -3.6553    1.4560 C.ar    1  UNL1        0.0000
     70 C           3.1350   -3.7900    1.4052 C.2     1  UNL1        0.0000
     71 H           3.0467   -0.9218    2.6254 H       1  UNL1        0.0000
     72 H           4.4789    0.0541    2.9435 H       1  UNL1        0.0000
     73 H           3.5199    0.6166    4.9957 H       1  UNL1        0.0000
     74 H           1.9538   -0.0443    4.5347 H       1  UNL1        0.0000
     75 H           2.4609    2.7423    4.6994 H       1  UNL1        0.0000
     76 H           1.1668    2.0165    3.7455 H       1  UNL1        0.0000
     77 H           3.9669    2.7648    2.7799 H       1  UNL1        0.0000
     78 H           2.4200    3.2297    2.0559 H       1  UNL1        0.0000
     79 H           5.9641    3.4649   -2.2053 H       1  UNL1        0.0000
     80 H           6.8091    2.1021   -4.1346 H       1  UNL1        0.0000
     81 H           6.4106   -0.3257   -4.2271 H       1  UNL1        0.0000
     82 H           5.1558   -1.4899   -2.3889 H       1  UNL1        0.0000
     83 H          -3.4431    4.0495   -1.5513 H       1  UNL1        0.0000
     84 H          -3.7155    2.3831   -1.0425 H       1  UNL1        0.0000
     85 H          -5.7553    3.3389   -0.2633 H       1  UNL1        0.0000
     86 H          -4.9708    4.8855    0.1238 H       1  UNL1        0.0000
     87 H          -5.1441    3.7461    2.3270 H       1  UNL1        0.0000
     88 H          -4.5855    2.2255    1.5975 H       1  UNL1        0.0000
     89 H          -2.4986    3.2098    2.4999 H       1  UNL1        0.0000
     90 H          -2.9755    4.8089    1.8975 H       1  UNL1        0.0000
     91 H          -0.5919    8.1831   -1.8310 H       1  UNL1        0.0000
     92 H          -3.5436   -0.6503   -3.6306 H       1  UNL1        0.0000
     93 H          -4.8826    0.0315   -2.7073 H       1  UNL1        0.0000
     94 H          -6.3805   -1.7582   -3.3875 H       1  UNL1        0.0000
     95 H          -5.3963   -1.6280   -4.8375 H       1  UNL1        0.0000
     96 H          -5.5775   -3.9110   -3.0066 H       1  UNL1        0.0000
     97 H          -4.5008   -3.8035   -4.3958 H       1  UNL1        0.0000
     98 H          -3.4784   -3.9165   -1.8347 H       1  UNL1        0.0000
     99 H          -2.7062   -2.9355   -3.0930 H       1  UNL1        0.0000
    100 H          -6.9934   -4.2200    1.9892 H       1  UNL1        0.0000
    101 H          -8.1826   -2.8852    3.7508 H       1  UNL1        0.0000
    102 H          -8.0605   -0.4254    3.7561 H       1  UNL1        0.0000
    103 H          -6.7466    0.7916    1.9984 H       1  UNL1        0.0000
    104 H           1.8554   -5.2719   -2.0381 H       1  UNL1        0.0000
    105 H           1.5730   -3.6277   -2.6103 H       1  UNL1        0.0000
    106 H          -0.8078   -3.8255   -2.3213 H       1  UNL1        0.0000
    107 H          -0.4419   -5.4881   -2.7510 H       1  UNL1        0.0000
    108 H          -1.0718   -6.1689   -0.5414 H       1  UNL1        0.0000
    109 H          -1.5044   -4.4989   -0.2079 H       1  UNL1        0.0000
    110 H           0.3317   -4.6847    1.3373 H       1  UNL1        0.0000
    111 H           1.1412   -5.9010    0.3387 H       1  UNL1        0.0000
    112 H           5.0716   -3.5851    3.5585 H       1  UNL1        0.0000
    113 O           2.3625   -3.8165    2.3402 O.2     1  UNL1        0.0000
    114 O           3.9609   -3.5772   -1.9908 O.2     1  UNL1        0.0000
    115 O          -4.9661    0.4917   -0.3966 O.2     1  UNL1        0.0000
    116 O          -5.2237   -4.1188   -0.3850 O.2     1  UNL1        0.0000
    117 O          -2.6645    6.1811   -1.0170 O.2     1  UNL1        0.0000
    118 O           0.3374    3.4519    1.1315 O.2     1  UNL1        0.0000
    119 O           3.6979   -1.1097    0.2230 O.2     1  UNL1        0.0000
    120 O           4.3854    3.4336    0.3200 O.2     1  UNL1        0.0000
    121 H           2.7502    5.1450    0.3671 H       1  UNL1        0.0000
    122 H           3.4798    7.2876   -0.6985 H       1  UNL1        0.0000
    123 H           1.8437    8.7841   -1.7732 H       1  UNL1        0.0000
    124 H           6.7988   -3.3750   -1.1442 H       1  UNL1        0.0000
    125 H           8.3717   -3.1901    0.7998 H       1  UNL1        0.0000
    126 H           7.5252   -3.2900    3.1114 H       1  UNL1        0.0000
@<TRIPOS>BOND
     1     1     9    1
     2     1     7    1
     3     2    10    1
     4     2     8    1
     5     2     1    1
     6     3    19    1
     7     3     7    1
     8     4    14    1
     9     5    12    1
    10     6    32    1
    11     6     9    1
    12     8     3    1
    13    10     6    1
    14    11     5    1
    15    11     2    1
    16    12     1    1
    17    13     2    1
    18    13     4    1
    19    14     1    1
    20    15    19    1
    21    16    32    1
    22    16    37   am
    23    17    50   am
    24    17    57   am
    25    18    70   am
    26    19    23    1
    27    19    20    1
    28    20    72    1
    29    20    21    1
    30    21    74    1
    31    21    73    1
    32    22    21    1
    33    22    75    1
    34    23    77    1
    35    23    22    1
    36    24   120    2
    37    24    15   am
    38    25    24    1
    39    26    79    1
    40    26    25   ar
    41    27    26   ar
    42    28    27   ar
    43    28    29   ar
    44    29    30   ar
    45    30    25   ar
    46    30    31    1
    47    31   119    2
    48    31    15   am
    49    32    36    1
    50    33    34    1
    51    33    32    1
    52    34    35    1
    53    35    88    1
    54    35    36    1
    55    35    87    1
    56    36    90    1
    57    36    89    1
    58    37   118    2
    59    38    39   ar
    60    38    37    1
    61    39   121    1
    62    40   122    1
    63    40    39   ar
    64    41    40   ar
    65    42    41   ar
    66    42    43   ar
    67    43    44    1
    68    43    38   ar
    69    44    16   am
    70    45     5    1
    71    45    17    1
    72    46    93    1
    73    46    45    1
    74    47    48    1
    75    47    94    1
    76    47    46    1
    77    48    96    1
    78    48    49    1
    79    49    98    1
    80    49    45    1
    81    50    51    1
    82    51    56   ar
    83    51    52   ar
    84    52    53   ar
    85    53    54   ar
    86    53   101    1
    87    54   102    1
    88    55    54   ar
    89    56    55   ar
    90    57    56    1
    91    58     4    1
    92    58    18    1
    93    58    62    1
    94    59    58    1
    95    60    59    1
    96    60    61    1
    97    61   108    1
    98    61   109    1
    99    61    62    1
   100    62   111    1
   101    62   110    1
   102    63    18   am
   103    63    64    1
   104    64    69   ar
   105    65    64   ar
   106    65    66   ar
   107    66    67   ar
   108    67    68   ar
   109    67   126    1
   110    68   112    1
   111    69    68   ar
   112    70    69    1
   113    70   113    2
   114    71    20    1
   115    76    22    1
   116    78    23    1
   117    80    27    1
   118    81    28    1
   119    82    29    1
   120    83    33    1
   121    84    33    1
   122    85    34    1
   123    86    34    1
   124    91    42    1
   125    92    46    1
   126    95    47    1
   127    97    48    1
   128    99    49    1
   129   100    52    1
   130   103    55    1
   131   104    59    1
   132   105    59    1
   133   106    60    1
   134   107    60    1
   135   114    63    2
   136   115    57    2
   137   116    50    2
   138   117    44    2
   139   123    41    1
   140   124    65    1
   141   125    66    1
