@<TRIPOS>MOLECULE
RhRh_S-TCPTTL4_fromcarbene_20kcal_12_sp
 134 145 0 0 0
SMALL
GASTEIGER

@<TRIPOS>ATOM
      1 Rh         -1.5101    1.1611   -1.3467 Rh      1  UNL1        0.0000
      2 Rh         -0.0326    0.8479    0.5054 Rh      1  UNL1        0.0000
      3 C           1.2757    0.9985   -2.0713 C.3     1  UNL1        0.0000
      4 C          -2.8218    1.0024    1.2280 C.3     1  UNL1        0.0000
      5 C          -0.4852    3.6126   -0.2191 C.3     1  UNL1        0.0000
      6 C          -0.8886   -1.5980   -0.7398 C.3     1  UNL1        0.0000
      7 O          -3.0730    1.1386   -0.0102 O.3     1  UNL1        0.0000
      8 O          -1.6703    0.8895    1.7457 O.3     1  UNL1        0.0000
      9 O          -1.5732   -0.8919   -1.5368 O.3     1  UNL1        0.0000
     10 O          -0.2336   -1.1646    0.2643 O.3     1  UNL1        0.0000
     11 O           0.1359    1.2159   -2.5782 O.3     1  UNL1        0.0000
     12 O           1.5175    0.7838   -0.8405 O.3     1  UNL1        0.0000
     13 O          -1.3008    3.1962   -1.0942 O.3     1  UNL1        0.0000
     14 O           0.1201    2.8970    0.6385 O.3     1  UNL1        0.0000
     15 N          -5.2255    0.7115    1.4359 N.am    1  UNL1        0.0000
     16 N          -0.2536   -3.7397    0.1960 N.am    1  UNL1        0.0000
     17 N           3.1768   -0.3044   -2.8084 N.am    1  UNL1        0.0000
     18 N           1.2116    5.2736    0.2199 N.am    1  UNL1        0.0000
     19 CL         -9.1362    2.9022    0.3332 Cl      1  UNL1        0.0000
     20 CL        -10.7222    0.9977   -1.6228 Cl      1  UNL1        0.0000
     21 CL         -9.5143   -1.7748   -2.4439 Cl      1  UNL1        0.0000
     22 CL         -6.7057   -2.6775   -1.3195 Cl      1  UNL1        0.0000
     23 CL          3.8792   -5.0637    1.7595 Cl      1  UNL1        0.0000
     24 CL          3.5274   -5.7094    4.8347 Cl      1  UNL1        0.0000
     25 CL          0.7339   -5.3493    6.2086 Cl      1  UNL1        0.0000
     26 CL         -1.7450   -4.3451    4.5312 Cl      1  UNL1        0.0000
     27 CL          7.2357   -1.7972   -1.1785 Cl      1  UNL1        0.0000
     28 CL          7.0921   -4.9531   -1.1624 Cl      1  UNL1        0.0000
     29 CL          4.5801   -6.4187   -2.3280 Cl      1  UNL1        0.0000
     30 CL          2.1644   -4.7503   -3.4786 Cl      1  UNL1        0.0000
     31 CL          5.1817    3.1692   -0.8142 Cl      1  UNL1        0.0000
     32 CL          7.3536    4.2925    1.1790 Cl      1  UNL1        0.0000
     33 CL          6.5451    6.3679    3.3834 Cl      1  UNL1        0.0000
     34 CL          3.5530    7.3496    3.6164 Cl      1  UNL1        0.0000
     35 C          -4.0239    1.0732    2.1764 C.3     1  UNL1        0.0000
     36 C          -6.2778    1.6197    1.2659 C.2     1  UNL1        0.0000
     37 C          -7.2491    0.9445    0.3483 C.ar    1  UNL1        0.0000
     38 C          -8.4800    1.3691   -0.1282 C.ar    1  UNL1        0.0000
     39 C          -9.1819    0.5100   -1.0020 C.ar    1  UNL1        0.0000
     40 C          -8.6387   -0.7365   -1.3710 C.ar    1  UNL1        0.0000
     41 C          -7.3832   -1.1500   -0.8736 C.ar    1  UNL1        0.0000
     42 C          -6.7103   -0.2917   -0.0175 C.ar    1  UNL1        0.0000
     43 C          -5.3826   -0.4456    0.6625 C.2     1  UNL1        0.0000
     44 C          -3.8852    0.3790    3.5725 C.3     1  UNL1        0.0000
     45 C          -5.2769    0.3736    4.2324 C.3     1  UNL1        0.0000
     46 C          -3.3534   -1.0596    3.4827 C.3     1  UNL1        0.0000
     47 C          -2.9434    1.2313    4.4463 C.3     1  UNL1        0.0000
     48 C          -0.6898   -3.0850   -1.0380 C.3     1  UNL1        0.0000
     49 C           1.1010   -4.0224    0.4000 C.2     1  UNL1        0.0000
     50 C           1.2338   -4.4293    1.8291 C.ar    1  UNL1        0.0000
     51 C           2.3422   -4.8699    2.5354 C.ar    1  UNL1        0.0000
     52 C           2.1747   -5.1569    3.9073 C.ar    1  UNL1        0.0000
     53 C           0.9173   -4.9952    4.5243 C.ar    1  UNL1        0.0000
     54 C          -0.1980   -4.5454    3.7829 C.ar    1  UNL1        0.0000
     55 C          -0.0123   -4.2694    2.4370 C.ar    1  UNL1        0.0000
     56 C          -0.9752   -3.7671    1.4009 C.2     1  UNL1        0.0000
     57 C          -1.7719   -3.8415   -1.8696 C.3     1  UNL1        0.0000
     58 C          -1.6579   -3.3636   -3.3324 C.3     1  UNL1        0.0000
     59 C          -1.4320   -5.3421   -1.8175 C.3     1  UNL1        0.0000
     60 C          -3.2071   -3.6166   -1.3737 C.3     1  UNL1        0.0000
     61 C           2.5277    1.0005   -2.9597 C.3     1  UNL1        0.0000
     62 C           4.4917   -0.4413   -2.3350 C.2     1  UNL1        0.0000
     63 C           4.7283   -1.9157   -2.2251 C.ar    1  UNL1        0.0000
     64 C           5.8319   -2.6197   -1.7685 C.ar    1  UNL1        0.0000
     65 C           5.7650   -4.0299   -1.7829 C.ar    1  UNL1        0.0000
     66 C           4.6327   -4.6898   -2.2995 C.ar    1  UNL1        0.0000
     67 C           3.5312   -3.9533   -2.7812 C.ar    1  UNL1        0.0000
     68 C           3.5853   -2.5729   -2.6868 C.ar    1  UNL1        0.0000
     69 C           2.5382   -1.5393   -2.9517 C.2     1  UNL1        0.0000
     70 C           2.4002    1.4666   -4.4380 C.3     1  UNL1        0.0000
     71 C           3.8159    1.4478   -5.0465 C.3     1  UNL1        0.0000
     72 C           1.4761    0.5815   -5.2900 C.3     1  UNL1        0.0000
     73 C           1.8855    2.9179   -4.4448 C.3     1  UNL1        0.0000
     74 C          -0.2022    5.1206   -0.1199 C.3     1  UNL1        0.0000
     75 C           2.2506    4.5292   -0.3464 C.2     1  UNL1        0.0000
     76 C           3.4637    4.8377    0.4717 C.ar    1  UNL1        0.0000
     77 C           4.7619    4.3615    0.3620 C.ar    1  UNL1        0.0000
     78 C           5.7191    4.8504    1.2799 C.ar    1  UNL1        0.0000
     79 C           5.3543    5.7788    2.2746 C.ar    1  UNL1        0.0000
     80 C           4.0194    6.2282    2.3845 C.ar    1  UNL1        0.0000
     81 C           3.0958    5.7417    1.4727 C.ar    1  UNL1        0.0000
     82 C           1.6236    5.9851    1.3584 C.2     1  UNL1        0.0000
     83 C          -0.6792    6.0359   -1.2870 C.3     1  UNL1        0.0000
     84 C          -0.1836    7.4654   -0.9959 C.3     1  UNL1        0.0000
     85 C          -0.1423    5.5850   -2.6540 C.3     1  UNL1        0.0000
     86 C          -2.2200    6.0513   -1.2980 C.3     1  UNL1        0.0000
     87 H          -4.1611    2.1438    2.3761 H       1  UNL1        0.0000
     88 H          -5.9700   -0.2912    3.7095 H       1  UNL1        0.0000
     89 H          -5.7163    1.3762    4.2569 H       1  UNL1        0.0000
     90 H          -5.1892    0.0162    5.2625 H       1  UNL1        0.0000
     91 H          -4.0065   -1.7058    2.8961 H       1  UNL1        0.0000
     92 H          -3.2735   -1.4768    4.4918 H       1  UNL1        0.0000
     93 H          -2.3649   -1.0958    3.0242 H       1  UNL1        0.0000
     94 H          -2.8841    0.7967    5.4489 H       1  UNL1        0.0000
     95 H          -3.3192    2.2557    4.5499 H       1  UNL1        0.0000
     96 H          -1.9370    1.2715    4.0292 H       1  UNL1        0.0000
     97 H           0.2161   -3.0821   -1.6560 H       1  UNL1        0.0000
     98 H          -2.3533   -3.9355   -3.9548 H       1  UNL1        0.0000
     99 H          -0.6465   -3.5065   -3.7232 H       1  UNL1        0.0000
    100 H          -1.9053   -2.3053   -3.4221 H       1  UNL1        0.0000
    101 H          -2.0870   -5.8881   -2.5028 H       1  UNL1        0.0000
    102 H          -1.5792   -5.7553   -0.8157 H       1  UNL1        0.0000
    103 H          -0.3957   -5.5316   -2.1159 H       1  UNL1        0.0000
    104 H          -3.8985   -4.1438   -2.0405 H       1  UNL1        0.0000
    105 H          -3.4719   -2.5594   -1.3783 H       1  UNL1        0.0000
    106 H          -3.3548   -3.9843   -0.3588 H       1  UNL1        0.0000
    107 H           3.2012    1.7002   -2.4579 H       1  UNL1        0.0000
    108 H           3.7845    1.8550   -6.0613 H       1  UNL1        0.0000
    109 H           4.2142    0.4308   -5.1114 H       1  UNL1        0.0000
    110 H           4.5160    2.0485   -4.4580 H       1  UNL1        0.0000
    111 H           1.4131    1.0014   -6.2994 H       1  UNL1        0.0000
    112 H           0.4719    0.5300   -4.8696 H       1  UNL1        0.0000
    113 H           1.8583   -0.4377   -5.3807 H       1  UNL1        0.0000
    114 H           1.8889    3.2994   -5.4706 H       1  UNL1        0.0000
    115 H           2.5198    3.5667   -3.8350 H       1  UNL1        0.0000
    116 H           0.8681    2.9815   -4.0587 H       1  UNL1        0.0000
    117 H          -0.7268    5.4585    0.7825 H       1  UNL1        0.0000
    118 H          -0.5934    8.1518   -1.7424 H       1  UNL1        0.0000
    119 H           0.9069    7.5317   -1.0491 H       1  UNL1        0.0000
    120 H          -0.4966    7.8091   -0.0057 H       1  UNL1        0.0000
    121 H          -0.4986    6.2732   -3.4273 H       1  UNL1        0.0000
    122 H          -0.4825    4.5800   -2.9039 H       1  UNL1        0.0000
    123 H           0.9495    5.5882   -2.6783 H       1  UNL1        0.0000
    124 H          -2.5726    6.7531   -2.0599 H       1  UNL1        0.0000
    125 H          -2.6174    6.3847   -0.3327 H       1  UNL1        0.0000
    126 H          -2.6313    5.0668   -1.5214 H       1  UNL1        0.0000
    127 O           2.1429    3.7963   -1.3078 O.2     1  UNL1        0.0000
    128 O           1.3572   -1.6930   -3.1896 O.2     1  UNL1        0.0000
    129 O           0.8917    6.6307    2.0751 O.2     1  UNL1        0.0000
    130 O           5.2493    0.4733   -2.0976 O.2     1  UNL1        0.0000
    131 O          -2.1282   -3.4338    1.5458 O.2     1  UNL1        0.0000
    132 O           1.9741   -3.9198   -0.4352 O.2     1  UNL1        0.0000
    133 O          -6.3390    2.7174    1.7766 O.2     1  UNL1        0.0000
    134 O          -4.5891   -1.3554    0.5845 O.2     1  UNL1        0.0000
@<TRIPOS>BOND
     1     1    13    1
     2     1     7    1
     3     1     2    1
     4     2    14    1
     5     2     8    1
     6     3    61    1
     7     3    12    1
     8     4     8    1
     9     4    35    1
    10     5    74    1
    11     5    14    1
    12     6    48    1
    13     6    10    1
    14     7     4    1
    15     9     1    1
    16     9     6    1
    17    10     2    1
    18    11     3    1
    19    11     1    1
    20    12     2    1
    21    13     5    1
    22    15    35    1
    23    16    49   am
    24    16    56   am
    25    17    62   am
    26    18    82   am
    27    20    39    1
    28    21    40    1
    29    22    41    1
    30    23    51    1
    31    29    66    1
    32    30    67    1
    33    31    77    1
    34    32    78    1
    35    35    87    1
    36    35    44    1
    37    36    15   am
    38    36   133    2
    39    37    36    1
    40    38    19    1
    41    38    37   ar
    42    39    38   ar
    43    40    39   ar
    44    40    41   ar
    45    41    42   ar
    46    42    37   ar
    47    42    43    1
    48    43    15   am
    49    44    45    1
    50    44    47    1
    51    45    89    1
    52    45    90    1
    53    46    44    1
    54    46    92    1
    55    47    95    1
    56    47    94    1
    57    48    97    1
    58    48    16    1
    59    49    50    1
    60    50    55   ar
    61    50    51   ar
    62    51    52   ar
    63    52    53   ar
    64    52    24    1
    65    53    25    1
    66    54    53   ar
    67    54    26    1
    68    55    54   ar
    69    56   131    2
    70    56    55    1
    71    57    59    1
    72    57    60    1
    73    57    48    1
    74    58    57    1
    75    59   102    1
    76    60   106    1
    77    61    17    1
    78    61   107    1
    79    62    63    1
    80    62   130    2
    81    63    64   ar
    82    64    27    1
    83    65    64   ar
    84    65    28    1
    85    66    65   ar
    86    67    68   ar
    87    67    66   ar
    88    68    63   ar
    89    69    17   am
    90    69    68    1
    91    70    61    1
    92    71   110    1
    93    71    70    1
    94    72   112    1
    95    72    70    1
    96    73    70    1
    97    73   116    1
    98    73   115    1
    99    74    18    1
   100    74   117    1
   101    75    18   am
   102    75    76    1
   103    76    81   ar
   104    77    76   ar
   105    77    78   ar
   106    78    79   ar
   107    79    80   ar
   108    79    33    1
   109    80    34    1
   110    81    80   ar
   111    82    81    1
   112    82   129    2
   113    83    84    1
   114    83    74    1
   115    84   120    1
   116    85    83    1
   117    86    83    1
   118    86   125    1
   119    88    45    1
   120    91    46    1
   121    93    46    1
   122    96    47    1
   123    98    58    1
   124    99    58    1
   125   100    58    1
   126   101    59    1
   127   103    59    1
   128   104    60    1
   129   105    60    1
   130   108    71    1
   131   109    71    1
   132   111    72    1
   133   113    72    1
   134   114    73    1
   135   118    84    1
   136   119    84    1
   137   121    85    1
   138   122    85    1
   139   123    85    1
   140   124    86    1
   141   126    86    1
   142   127    75    2
   143   128    69    2
   144   132    49    2
   145   134    43    2
