@<TRIPOS>MOLECULE
RhRh_PhPhtol-O2C4_28_sp
 162 177 0 0 0
SMALL
GASTEIGER

@<TRIPOS>ATOM
      1 Rh          0.0411    0.0896    1.2306 Rh      1  UNL1        0.0000
      2 Rh         -0.0206    0.0965   -1.1525 Rh      1  UNL1        0.0000
      3 C          -0.9679    2.5367    0.0759 C.3     1  UNL1        0.0000
      4 C          -2.4239   -0.9339    0.0743 C.3     1  UNL1        0.0000
      5 C           0.9307   -2.3789    0.0432 C.3     1  UNL1        0.0000
      6 C           2.4790    1.0053   -0.0500 C.3     1  UNL1        0.0000
      7 O          -1.8917   -0.6645    1.1934 O.3     1  UNL1        0.0000
      8 O          -1.8465   -0.8003   -1.0517 O.3     1  UNL1        0.0000
      9 O           0.7759   -1.8106    1.1699 O.3     1  UNL1        0.0000
     10 O           0.8215   -1.7935   -1.0774 O.3     1  UNL1        0.0000
     11 O           1.9671    0.7816    1.0900 O.3     1  UNL1        0.0000
     12 O           1.8431    0.9755   -1.1507 O.3     1  UNL1        0.0000
     13 O          -0.6781    1.9999    1.1922 O.3     1  UNL1        0.0000
     14 O          -0.9121    1.9498   -1.0467 O.3     1  UNL1        0.0000
     15 C          -3.9209   -1.3689    0.0116 C.3     1  UNL1        0.0000
     16 C          -4.6354   -0.0222   -0.3155 C.ar    1  UNL1        0.0000
     17 C          -5.6652    0.4913    0.4794 C.ar    1  UNL1        0.0000
     18 C          -6.3055    1.6830    0.1360 C.ar    1  UNL1        0.0000
     19 C          -5.9159    2.3932   -0.9966 C.ar    1  UNL1        0.0000
     20 C          -4.8899    1.8912   -1.7973 C.ar    1  UNL1        0.0000
     21 C          -4.2632    0.6935   -1.4644 C.ar    1  UNL1        0.0000
     22 C          -4.0801   -2.4120   -1.1221 C.ar    1  UNL1        0.0000
     23 C          -3.0335   -3.3292   -1.3043 C.ar    1  UNL1        0.0000
     24 C          -3.0839   -4.3348   -2.2619 C.ar    1  UNL1        0.0000
     25 C          -4.2137   -4.4511   -3.0675 C.ar    1  UNL1        0.0000
     26 C          -5.2814   -3.5849   -2.8617 C.ar    1  UNL1        0.0000
     27 C          -5.2558   -2.5722   -1.8884 C.ar    1  UNL1        0.0000
     28 C          -4.3891   -1.9649    1.3531 C.ar    1  UNL1        0.0000
     29 C          -4.2036   -1.2725    2.5624 C.ar    1  UNL1        0.0000
     30 C          -4.6298   -1.8157    3.7716 C.ar    1  UNL1        0.0000
     31 C          -5.2694   -3.0568    3.8040 C.ar    1  UNL1        0.0000
     32 C          -5.4812   -3.7413    2.6105 C.ar    1  UNL1        0.0000
     33 C          -5.0415   -3.2017    1.3999 C.ar    1  UNL1        0.0000
     34 C           1.2440   -3.9068    0.1111 C.3     1  UNL1        0.0000
     35 C           2.2959   -4.0655    1.2264 C.ar    1  UNL1        0.0000
     36 C           2.2151   -5.0865    2.1751 C.ar    1  UNL1        0.0000
     37 C           3.2035   -5.2285    3.1519 C.ar    1  UNL1        0.0000
     38 C           4.2803   -4.3450    3.2002 C.ar    1  UNL1        0.0000
     39 C           4.3601   -3.3111    2.2650 C.ar    1  UNL1        0.0000
     40 C           3.3742   -3.1743    1.2929 C.ar    1  UNL1        0.0000
     41 C           1.6710   -4.4125   -1.2920 C.ar    1  UNL1        0.0000
     42 C           2.8464   -5.1242   -1.6253 C.ar    1  UNL1        0.0000
     43 C           3.0383   -5.4873   -2.9742 C.ar    1  UNL1        0.0000
     44 C           2.1216   -5.1986   -3.9748 C.ar    1  UNL1        0.0000
     45 C           0.9421   -4.5389   -3.6350 C.ar    1  UNL1        0.0000
     46 C           0.7343   -4.1646   -2.3162 C.ar    1  UNL1        0.0000
     47 C          -0.0837   -4.6072    0.5411 C.ar    1  UNL1        0.0000
     48 C          -0.8856   -4.0869    1.5698 C.ar    1  UNL1        0.0000
     49 C          -2.0576   -4.7288    1.9624 C.ar    1  UNL1        0.0000
     50 C          -2.4479   -5.9187    1.3504 C.ar    1  UNL1        0.0000
     51 C          -1.6396   -6.4691    0.3583 C.ar    1  UNL1        0.0000
     52 C          -0.4691   -5.8216   -0.0412 C.ar    1  UNL1        0.0000
     53 C           4.0048    1.3113   -0.1193 C.3     1  UNL1        0.0000
     54 C           4.1818    2.4777   -1.1094 C.ar    1  UNL1        0.0000
     55 C           3.3954    3.6267   -0.9510 C.ar    1  UNL1        0.0000
     56 C           3.5311    4.7172   -1.8048 C.ar    1  UNL1        0.0000
     57 C           4.4548    4.6722   -2.8506 C.ar    1  UNL1        0.0000
     58 C           5.2301    3.5285   -3.0287 C.ar    1  UNL1        0.0000
     59 C           5.0936    2.4379   -2.1664 C.ar    1  UNL1        0.0000
     60 C           4.4534    1.6560    1.3181 C.ar    1  UNL1        0.0000
     61 C           4.8451    2.9362    1.7109 C.ar    1  UNL1        0.0000
     62 C           5.2380    3.1900    3.0282 C.ar    1  UNL1        0.0000
     63 C           5.2427    2.1670    3.9724 C.ar    1  UNL1        0.0000
     64 C           4.8494    0.8818    3.5889 C.ar    1  UNL1        0.0000
     65 C           4.4587    0.6327    2.2780 C.ar    1  UNL1        0.0000
     66 C           4.7415    0.0354   -0.6258 C.ar    1  UNL1        0.0000
     67 C           6.1311   -0.1522   -0.4093 C.ar    1  UNL1        0.0000
     68 C           6.7266   -1.3287   -0.8857 C.ar    1  UNL1        0.0000
     69 C           6.0149   -2.2981   -1.5876 C.ar    1  UNL1        0.0000
     70 C           4.6678   -2.0834   -1.8518 C.ar    1  UNL1        0.0000
     71 C           4.0504   -0.9287   -1.3737 C.ar    1  UNL1        0.0000
     72 C          -1.4145    4.0201    0.1377 C.3     1  UNL1        0.0000
     73 C          -2.4246    4.1173    1.3055 C.ar    1  UNL1        0.0000
     74 C          -3.3734    3.1025    1.4939 C.ar    1  UNL1        0.0000
     75 C          -4.3010    3.1782    2.5284 C.ar    1  UNL1        0.0000
     76 C          -4.3089    4.2789    3.3872 C.ar    1  UNL1        0.0000
     77 C          -3.3841    5.3022    3.1939 C.ar    1  UNL1        0.0000
     78 C          -2.4472    5.2206    2.1615 C.ar    1  UNL1        0.0000
     79 C          -0.1750    4.8955    0.4735 C.ar    1  UNL1        0.0000
     80 C           0.7800    4.4896    1.4169 C.ar    1  UNL1        0.0000
     81 C           1.8506    5.3179    1.7540 C.ar    1  UNL1        0.0000
     82 C           1.9824    6.5757    1.1670 C.ar    1  UNL1        0.0000
     83 C           1.0235    7.0001    0.2474 C.ar    1  UNL1        0.0000
     84 C          -0.0438    6.1692   -0.0944 C.ar    1  UNL1        0.0000
     85 C          -2.0526    4.4428   -1.2069 C.ar    1  UNL1        0.0000
     86 C          -1.3350    4.4240   -2.4277 C.ar    1  UNL1        0.0000
     87 C          -1.9996    4.8152   -3.5980 C.ar    1  UNL1        0.0000
     88 C          -3.3253    5.2390   -3.5977 C.ar    1  UNL1        0.0000
     89 C          -4.0164    5.2900   -2.3914 C.ar    1  UNL1        0.0000
     90 C          -3.3796    4.8925   -1.2182 C.ar    1  UNL1        0.0000
     91 C          -6.5289   -1.7784   -1.6948 C.3     1  UNL1        0.0000
     92 C           3.9458   -5.5606   -0.6792 C.3     1  UNL1        0.0000
     93 C           7.0437    0.8522    0.2609 C.3     1  UNL1        0.0000
     94 C           0.1198    4.0403   -2.5844 C.3     1  UNL1        0.0000
     95 H          -5.9905   -0.0487    1.3590 H       1  UNL1        0.0000
     96 H          -7.1057    2.0579    0.7668 H       1  UNL1        0.0000
     97 H          -6.3980    3.3314   -1.2515 H       1  UNL1        0.0000
     98 H          -4.5644    2.4401   -2.6740 H       1  UNL1        0.0000
     99 H          -3.4794    0.3076   -2.1013 H       1  UNL1        0.0000
    100 H          -2.1584   -3.2713   -0.6715 H       1  UNL1        0.0000
    101 H          -2.2490   -5.0197   -2.3619 H       1  UNL1        0.0000
    102 H          -4.2756   -5.2221   -3.8297 H       1  UNL1        0.0000
    103 H          -6.1823   -3.6981   -3.4583 H       1  UNL1        0.0000
    104 H          -3.7227   -0.3040    2.5582 H       1  UNL1        0.0000
    105 H          -4.4654   -1.2623    4.6913 H       1  UNL1        0.0000
    106 H          -5.6028   -3.4781    4.7475 H       1  UNL1        0.0000
    107 H          -5.9828   -4.7044    2.6130 H       1  UNL1        0.0000
    108 H          -5.1957   -3.7625    0.4878 H       1  UNL1        0.0000
    109 H           1.3838   -5.7808    2.1503 H       1  UNL1        0.0000
    110 H           3.1257   -6.0329    3.8770 H       1  UNL1        0.0000
    111 H           5.0471   -4.4570    3.9607 H       1  UNL1        0.0000
    112 H           5.1921   -2.6135    2.2810 H       1  UNL1        0.0000
    113 H           3.4617   -2.3776    0.5653 H       1  UNL1        0.0000
    114 H           3.9461   -6.0266   -3.2288 H       1  UNL1        0.0000
    115 H           2.3169   -5.5013   -4.9990 H       1  UNL1        0.0000
    116 H           0.1863   -4.3192   -4.3826 H       1  UNL1        0.0000
    117 H          -0.1914   -3.6650   -2.0683 H       1  UNL1        0.0000
    118 H          -0.5989   -3.1711    2.0642 H       1  UNL1        0.0000
    119 H          -2.6713   -4.2853    2.7384 H       1  UNL1        0.0000
    120 H          -3.3703   -6.4090    1.6452 H       1  UNL1        0.0000
    121 H          -1.9192   -7.4032   -0.1196 H       1  UNL1        0.0000
    122 H           0.1410   -6.2633   -0.8186 H       1  UNL1        0.0000
    123 H           2.6710    3.6767   -0.1475 H       1  UNL1        0.0000
    124 H           2.9103    5.5927   -1.6472 H       1  UNL1        0.0000
    125 H           4.5634    5.5180   -3.5227 H       1  UNL1        0.0000
    126 H           5.9446    3.4756   -3.8447 H       1  UNL1        0.0000
    127 H           5.6931    1.5511   -2.3305 H       1  UNL1        0.0000
    128 H           4.8663    3.7426    0.9895 H       1  UNL1        0.0000
    129 H           5.5498    4.1923    3.3072 H       1  UNL1        0.0000
    130 H           5.5512    2.3640    4.9946 H       1  UNL1        0.0000
    131 H           4.8453    0.0712    4.3113 H       1  UNL1        0.0000
    132 H           4.1507   -0.3665    1.9956 H       1  UNL1        0.0000
    133 H           7.7893   -1.4710   -0.7092 H       1  UNL1        0.0000
    134 H           6.5140   -3.1958   -1.9392 H       1  UNL1        0.0000
    135 H           4.0845   -2.8064   -2.4109 H       1  UNL1        0.0000
    136 H           3.0050   -0.7911   -1.5988 H       1  UNL1        0.0000
    137 H          -3.3977    2.2471    0.8284 H       1  UNL1        0.0000
    138 H          -5.0192    2.3754    2.6542 H       1  UNL1        0.0000
    139 H          -5.0308    4.3373    4.1962 H       1  UNL1        0.0000
    140 H          -3.3814    6.1676    3.8498 H       1  UNL1        0.0000
    141 H          -1.7287    6.0203    2.0303 H       1  UNL1        0.0000
    142 H           0.6923    3.5213    1.8894 H       1  UNL1        0.0000
    143 H           2.5882    4.9629    2.4671 H       1  UNL1        0.0000
    144 H           2.8185    7.2183    1.4249 H       1  UNL1        0.0000
    145 H           1.1022    7.9817   -0.2104 H       1  UNL1        0.0000
    146 H          -0.7787    6.5130   -0.8117 H       1  UNL1        0.0000
    147 H          -1.4456    4.7931   -4.5332 H       1  UNL1        0.0000
    148 H          -3.8034    5.5381   -4.5257 H       1  UNL1        0.0000
    149 H          -5.0458    5.6333   -2.3551 H       1  UNL1        0.0000
    150 H          -3.9340    4.9267   -0.2909 H       1  UNL1        0.0000
    151 H          -6.8120   -1.7209   -0.6416 H       1  UNL1        0.0000
    152 H          -6.4467   -0.7524   -2.0615 H       1  UNL1        0.0000
    153 H          -7.3467   -2.2641   -2.2336 H       1  UNL1        0.0000
    154 H           3.5654   -6.0686    0.2065 H       1  UNL1        0.0000
    155 H           4.6140   -6.2502   -1.2012 H       1  UNL1        0.0000
    156 H           4.5449   -4.7176   -0.3291 H       1  UNL1        0.0000
    157 H           8.0796    0.6470   -0.0221 H       1  UNL1        0.0000
    158 H           6.8131    1.8770   -0.0333 H       1  UNL1        0.0000
    159 H           6.9769    0.8086    1.3511 H       1  UNL1        0.0000
    160 H           0.6391    3.8694   -1.6486 H       1  UNL1        0.0000
    161 H           0.2130    3.1229   -3.1729 H       1  UNL1        0.0000
    162 H           0.6586    4.8308   -3.1171 H       1  UNL1        0.0000
@<TRIPOS>BOND
     1     2    12    1
     2     2    10    1
     3     2     8    1
     4     2    14    1
     5     2     1    1
     6     3    72    1
     7     3    13    1
     8     4     7    1
     9     5    34    1
    10     5     9    1
    11     6    11    1
    12     7     1    1
    13     8     4    1
    14     9     1    1
    15    10     5    1
    16    11     1    1
    17    12     6    1
    18    13     1    1
    19    14     3    1
    20    15     4    1
    21    15    28    1
    22    16    15    1
    23    16    17   ar
    24    17    95    1
    25    18    17   ar
    26    18    96    1
    27    19    18   ar
    28    20    21   ar
    29    20    19   ar
    30    21    16   ar
    31    22    15    1
    32    23    22   ar
    33    23   100    1
    34    24    23   ar
    35    25    26   ar
    36    25    24   ar
    37    26    27   ar
    38    27    91    1
    39    27    22   ar
    40    28    33   ar
    41    28    29   ar
    42    29    30   ar
    43    30    31   ar
    44    30   105    1
    45    31   106    1
    46    32   107    1
    47    32    31   ar
    48    33    32   ar
    49    34    47    1
    50    34    35    1
    51    35    40   ar
    52    35    36   ar
    53    36    37   ar
    54    37    38   ar
    55    37   110    1
    56    38   111    1
    57    39   112    1
    58    39    38   ar
    59    40    39   ar
    60    41    34    1
    61    42    41   ar
    62    42    92    1
    63    43    42   ar
    64    44    45   ar
    65    44    43   ar
    66    45    46   ar
    67    46   117    1
    68    46    41   ar
    69    47    48   ar
    70    48    49   ar
    71    48   118    1
    72    49   119    1
    73    50   120    1
    74    50    49   ar
    75    51    50   ar
    76    52    51   ar
    77    52    47   ar
    78    53     6    1
    79    53    60    1
    80    54    55   ar
    81    54    53    1
    82    55   123    1
    83    56   124    1
    84    56    55   ar
    85    57    56   ar
    86    58    57   ar
    87    58    59   ar
    88    59    54   ar
    89    60    61   ar
    90    60    65   ar
    91    61    62   ar
    92    62   129    1
    93    62    63   ar
    94    63   130    1
    95    64    63   ar
    96    64   131    1
    97    65    64   ar
    98    66    67   ar
    99    66    53    1
   100    67    93    1
   101    68   133    1
   102    68    67   ar
   103    69    68   ar
   104    70    69   ar
   105    70    71   ar
   106    71    66   ar
   107    72    79    1
   108    72    73    1
   109    73    74   ar
   110    73    78   ar
   111    74    75   ar
   112    75   138    1
   113    75    76   ar
   114    76   139    1
   115    77    76   ar
   116    77   140    1
   117    78    77   ar
   118    79    80   ar
   119    80    81   ar
   120    80   142    1
   121    81   143    1
   122    82   144    1
   123    82    81   ar
   124    83    82   ar
   125    84    83   ar
   126    84    79   ar
   127    85    72    1
   128    86    85   ar
   129    87    88   ar
   130    87    86   ar
   131    88    89   ar
   132    89   149    1
   133    89    90   ar
   134    90    85   ar
   135    90   150    1
   136    91   151    1
   137    92   156    1
   138    92   154    1
   139    93   159    1
   140    94    86    1
   141    94   160    1
   142    97    19    1
   143    98    20    1
   144    99    21    1
   145   101    24    1
   146   102    25    1
   147   103    26    1
   148   104    29    1
   149   108    33    1
   150   109    36    1
   151   113    40    1
   152   114    43    1
   153   115    44    1
   154   116    45    1
   155   121    51    1
   156   122    52    1
   157   125    57    1
   158   126    58    1
   159   127    59    1
   160   128    61    1
   161   132    65    1
   162   134    69    1
   163   135    70    1
   164   136    71    1
   165   137    74    1
   166   141    78    1
   167   145    83    1
   168   146    84    1
   169   147    87    1
   170   148    88    1
   171   152    91    1
   172   153    91    1
   173   155    92    1
   174   157    93    1
   175   158    93    1
   176   161    94    1
   177   162    94    1
