@<TRIPOS>MOLECULE
RhRh_S-TPPTTL4_6_ONIOM_sp
 294 321 0 0 0
SMALL
GASTEIGER

@<TRIPOS>ATOM
      1 Rh          0.0002    0.0001   -4.1606 Rh      1  UNL1        0.0000
      2 Rh          0.0002    0.0001   -1.7749 Rh      1  UNL1        0.0000
      3 C          -1.5030    2.1581   -2.9727 C.3     1  UNL1        0.0000
      4 C          -2.1312   -1.5386   -2.9682 C.3     1  UNL1        0.0000
      5 C           2.1315    1.5389   -2.9680 C.3     1  UNL1        0.0000
      6 C           1.5033   -2.1579   -2.9727 C.3     1  UNL1        0.0000
      7 O           1.7112    1.1311   -1.8371 O.3     1  UNL1        0.0000
      8 O           1.6321    1.2495   -4.0918 O.3     1  UNL1        0.0000
      9 O           1.1227   -1.7167   -1.8406 O.3     1  UNL1        0.0000
     10 O           1.2304   -1.6482   -4.0959 O.3     1  UNL1        0.0000
     11 O          -1.7108   -1.1309   -1.8372 O.3     1  UNL1        0.0000
     12 O          -1.6316   -1.2492   -4.0919 O.3     1  UNL1        0.0000
     13 O          -1.1223    1.7170   -1.8406 O.3     1  UNL1        0.0000
     14 O          -1.2300    1.6485   -4.0959 O.3     1  UNL1        0.0000
     15 N           4.3011    1.9484   -1.9123 N.am    1  UNL1        0.0000
     16 N           1.9457   -4.2491   -1.7805 N.am    1  UNL1        0.0000
     17 N          -4.3008   -1.9481   -1.9124 N.am    1  UNL1        0.0000
     18 N          -1.9456    4.2493   -1.7806 N.am    1  UNL1        0.0000
     19 C           3.3142    2.5200   -2.8302 C.3     1  UNL1        0.0000
     20 C           4.6412    2.6210   -0.7297 C.2     1  UNL1        0.0000
     21 C           5.5876    1.7288   -0.0009 C.ar    1  UNL1        0.0000
     22 C           5.7472    0.5601   -0.7451 C.ar    1  UNL1        0.0000
     23 C           4.8055    0.6365   -1.9185 C.2     1  UNL1        0.0000
     24 C           6.6546   -0.4261   -0.3605 C.ar    1  UNL1        0.0000
     25 C           7.4113   -0.1950    0.8212 C.ar    1  UNL1        0.0000
     26 C           7.2167    0.9843    1.5902 C.ar    1  UNL1        0.0000
     27 C           6.2843    1.9641    1.1770 C.ar    1  UNL1        0.0000
     28 C           6.0615    3.2252    1.9243 C.ar    1  UNL1        0.0000
     29 C           7.0667    4.2031    1.9793 C.ar    1  UNL1        0.0000
     30 C           6.8426    5.4022    2.6630 C.ar    1  UNL1        0.0000
     31 C           5.6176    5.6291    3.2973 C.ar    1  UNL1        0.0000
     32 C           4.6162    4.6552    3.2526 C.ar    1  UNL1        0.0000
     33 C           4.8347    3.4569    2.5668 C.ar    1  UNL1        0.0000
     34 C           8.0045    1.2145    2.8296 C.ar    1  UNL1        0.0000
     35 C           9.3896    1.4338    2.7588 C.ar    1  UNL1        0.0000
     36 C          10.1268    1.6511    3.9265 C.ar    1  UNL1        0.0000
     37 C           9.4860    1.6550    5.1688 C.ar    1  UNL1        0.0000
     38 C           8.1067    1.4416    5.2454 C.ar    1  UNL1        0.0000
     39 C           7.3662    1.2220    4.0803 C.ar    1  UNL1        0.0000
     40 C           8.4440   -1.1840    1.2357 C.ar    1  UNL1        0.0000
     41 C           8.3121   -1.8863    2.4451 C.ar    1  UNL1        0.0000
     42 C           9.2843   -2.8141    2.8295 C.ar    1  UNL1        0.0000
     43 C          10.3905   -3.0501    2.0088 C.ar    1  UNL1        0.0000
     44 C          10.5286   -2.3553    0.8041 C.ar    1  UNL1        0.0000
     45 C           9.5611   -1.4231    0.4182 C.ar    1  UNL1        0.0000
     46 C           6.8214   -1.6531   -1.1822 C.ar    1  UNL1        0.0000
     47 C           6.6504   -2.9239   -0.6079 C.ar    1  UNL1        0.0000
     48 C           6.8527   -4.0763   -1.3726 C.ar    1  UNL1        0.0000
     49 C           7.2214   -3.9694   -2.7160 C.ar    1  UNL1        0.0000
     50 C           7.3904   -2.7099   -3.2963 C.ar    1  UNL1        0.0000
     51 C           7.1981   -1.5551   -2.5325 C.ar    1  UNL1        0.0000
     52 C           3.9503    3.0917   -4.1314 C.3     1  UNL1        0.0000
     53 C           4.5335    1.9824   -5.0349 C.3     1  UNL1        0.0000
     54 C           5.0985    4.0591   -3.7576 C.3     1  UNL1        0.0000
     55 C           2.9035    3.9074   -4.9284 C.3     1  UNL1        0.0000
     56 C           2.4418   -3.3767   -2.8455 C.3     1  UNL1        0.0000
     57 C           2.7000   -4.4179   -0.6091 C.2     1  UNL1        0.0000
     58 C           1.8416   -5.1928    0.3326 C.ar    1  UNL1        0.0000
     59 C           0.6279   -5.4579   -0.3016 C.ar    1  UNL1        0.0000
     60 C           0.6303   -4.7157   -1.6113 C.2     1  UNL1        0.0000
     61 C          -0.3472   -6.2569    0.2954 C.ar    1  UNL1        0.0000
     62 C          -0.0650   -6.7669    1.5930 C.ar    1  UNL1        0.0000
     63 C           1.1555   -6.4537    2.2502 C.ar    1  UNL1        0.0000
     64 C           2.1312   -5.6543    1.6102 C.ar    1  UNL1        0.0000
     65 C           3.4237   -5.3029    2.2469 C.ar    1  UNL1        0.0000
     66 C           4.3762   -6.2976    2.5179 C.ar    1  UNL1        0.0000
     67 C           5.5948   -5.9585    3.1138 C.ar    1  UNL1        0.0000
     68 C           5.8677   -4.6275    3.4429 C.ar    1  UNL1        0.0000
     69 C           4.9226   -3.6330    3.1766 C.ar    1  UNL1        0.0000
     70 C           3.7034   -3.9679    2.5814 C.ar    1  UNL1        0.0000
     71 C           1.4290   -6.9759    3.6154 C.ar    1  UNL1        0.0000
     72 C           1.5158   -6.0940    4.7047 C.ar    1  UNL1        0.0000
     73 C           1.7767   -6.5852    5.9871 C.ar    1  UNL1        0.0000
     74 C           1.9519   -7.9572    6.1894 C.ar    1  UNL1        0.0000
     75 C           1.8682   -8.8400    5.1089 C.ar    1  UNL1        0.0000
     76 C           1.6096   -8.3527    3.8246 C.ar    1  UNL1        0.0000
     77 C          -1.0608   -7.6388    2.2728 C.ar    1  UNL1        0.0000
     78 C          -1.7154   -7.1931    3.4329 C.ar    1  UNL1        0.0000
     79 C          -2.6660   -8.0036    4.0593 C.ar    1  UNL1        0.0000
     80 C          -2.9693   -9.2620    3.5325 C.ar    1  UNL1        0.0000
     81 C          -2.3191   -9.7134    2.3803 C.ar    1  UNL1        0.0000
     82 C          -1.3662   -8.9065    1.7516 C.ar    1  UNL1        0.0000
     83 C          -1.5999   -6.5863   -0.4367 C.ar    1  UNL1        0.0000
     84 C          -1.5385   -7.1970   -1.7013 C.ar    1  UNL1        0.0000
     85 C          -2.7126   -7.5555   -2.3702 C.ar    1  UNL1        0.0000
     86 C          -3.9556   -7.3247   -1.7758 C.ar    1  UNL1        0.0000
     87 C          -4.0271   -6.7232   -0.5174 C.ar    1  UNL1        0.0000
     88 C          -2.8560   -6.3439    0.1454 C.ar    1  UNL1        0.0000
     89 C           2.8270   -4.1480   -4.1422 C.3     1  UNL1        0.0000
     90 C           3.6497   -3.2350   -5.0834 C.3     1  UNL1        0.0000
     91 C           1.5901   -4.6806   -4.8999 C.3     1  UNL1        0.0000
     92 C           3.7212   -5.3558   -3.7740 C.3     1  UNL1        0.0000
     93 C          -3.3138   -2.5196   -2.8305 C.3     1  UNL1        0.0000
     94 C          -4.8052   -0.6362   -1.9185 C.2     1  UNL1        0.0000
     95 C          -5.7469   -0.5599   -0.7451 C.ar    1  UNL1        0.0000
     96 C          -5.5874   -1.7288   -0.0011 C.ar    1  UNL1        0.0000
     97 C          -4.6409   -2.6209   -0.7300 C.2     1  UNL1        0.0000
     98 C          -6.2842   -1.9643    1.1767 C.ar    1  UNL1        0.0000
     99 C          -7.2167   -0.9846    1.5899 C.ar    1  UNL1        0.0000
    100 C          -7.4113    0.1948    0.8212 C.ar    1  UNL1        0.0000
    101 C          -6.6544    0.4261   -0.3604 C.ar    1  UNL1        0.0000
    102 C          -6.8212    1.6533   -1.1819 C.ar    1  UNL1        0.0000
    103 C          -6.6504    2.9240   -0.6072 C.ar    1  UNL1        0.0000
    104 C          -6.8527    4.0766   -1.3718 C.ar    1  UNL1        0.0000
    105 C          -7.2214    3.9699   -2.7152 C.ar    1  UNL1        0.0000
    106 C          -7.3902    2.7105   -3.2958 C.ar    1  UNL1        0.0000
    107 C          -7.1978    1.5556   -2.5322 C.ar    1  UNL1        0.0000
    108 C          -8.4440    1.1836    1.2358 C.ar    1  UNL1        0.0000
    109 C          -8.3123    1.8857    2.4453 C.ar    1  UNL1        0.0000
    110 C          -9.2846    2.8133    2.8298 C.ar    1  UNL1        0.0000
    111 C         -10.3907    3.0495    2.0091 C.ar    1  UNL1        0.0000
    112 C         -10.5286    2.3549    0.8042 C.ar    1  UNL1        0.0000
    113 C          -9.5610    1.4229    0.4182 C.ar    1  UNL1        0.0000
    114 C          -8.0046   -1.2152    2.8292 C.ar    1  UNL1        0.0000
    115 C          -9.3898   -1.4346    2.7581 C.ar    1  UNL1        0.0000
    116 C         -10.1271   -1.6522    3.9256 C.ar    1  UNL1        0.0000
    117 C          -9.4865   -1.6564    5.1680 C.ar    1  UNL1        0.0000
    118 C          -8.1072   -1.4429    5.2449 C.ar    1  UNL1        0.0000
    119 C          -7.3666   -1.2230    4.0799 C.ar    1  UNL1        0.0000
    120 C          -6.0614   -3.2256    1.9237 C.ar    1  UNL1        0.0000
    121 C          -7.0665   -4.2037    1.9782 C.ar    1  UNL1        0.0000
    122 C          -6.8425   -5.4029    2.6617 C.ar    1  UNL1        0.0000
    123 C          -5.6176   -5.6298    3.2963 C.ar    1  UNL1        0.0000
    124 C          -4.6164   -4.6557    3.2521 C.ar    1  UNL1        0.0000
    125 C          -4.8348   -3.4573    2.5666 C.ar    1  UNL1        0.0000
    126 C          -3.9500   -3.0911   -4.1317 C.3     1  UNL1        0.0000
    127 C          -4.5332   -1.9816   -5.0351 C.3     1  UNL1        0.0000
    128 C          -5.0983   -4.0585   -3.7580 C.3     1  UNL1        0.0000
    129 C          -2.9033   -3.9067   -4.9288 C.3     1  UNL1        0.0000
    130 C          -2.4416    3.3768   -2.8455 C.3     1  UNL1        0.0000
    131 C          -2.7000    4.4180   -0.6092 C.2     1  UNL1        0.0000
    132 C          -1.8418    5.1929    0.3325 C.ar    1  UNL1        0.0000
    133 C          -0.6280    5.4581   -0.3016 C.ar    1  UNL1        0.0000
    134 C          -0.6303    4.7160   -1.6113 C.2     1  UNL1        0.0000
    135 C           0.3470    6.2571    0.2956 C.ar    1  UNL1        0.0000
    136 C           0.0648    6.7671    1.5932 C.ar    1  UNL1        0.0000
    137 C          -1.1558    6.4537    2.2503 C.ar    1  UNL1        0.0000
    138 C          -2.1314    5.6544    1.6102 C.ar    1  UNL1        0.0000
    139 C          -3.4239    5.3029    2.2468 C.ar    1  UNL1        0.0000
    140 C          -4.3765    6.2976    2.5177 C.ar    1  UNL1        0.0000
    141 C          -5.5952    5.9584    3.1135 C.ar    1  UNL1        0.0000
    142 C          -5.8680    4.6274    3.4425 C.ar    1  UNL1        0.0000
    143 C          -4.9229    3.6329    3.1764 C.ar    1  UNL1        0.0000
    144 C          -3.7036    3.9679    2.5812 C.ar    1  UNL1        0.0000
    145 C          -1.4293    6.9759    3.6155 C.ar    1  UNL1        0.0000
    146 C          -1.6100    8.3527    3.8246 C.ar    1  UNL1        0.0000
    147 C          -1.8687    8.8400    5.1090 C.ar    1  UNL1        0.0000
    148 C          -1.9525    7.9571    6.1894 C.ar    1  UNL1        0.0000
    149 C          -1.7773    6.5852    5.9871 C.ar    1  UNL1        0.0000
    150 C          -1.5163    6.0940    4.7047 C.ar    1  UNL1        0.0000
    151 C           1.0605    7.6388    2.2731 C.ar    1  UNL1        0.0000
    152 C           1.3661    8.9066    1.7521 C.ar    1  UNL1        0.0000
    153 C           2.3190    9.7134    2.3809 C.ar    1  UNL1        0.0000
    154 C           2.9691    9.2617    3.5330 C.ar    1  UNL1        0.0000
    155 C           2.6658    8.0032    4.0597 C.ar    1  UNL1        0.0000
    156 C           1.7151    7.1929    3.4332 C.ar    1  UNL1        0.0000
    157 C           1.5998    6.5866   -0.4365 C.ar    1  UNL1        0.0000
    158 C           1.5384    7.1975   -1.7010 C.ar    1  UNL1        0.0000
    159 C           2.7125    7.5560   -2.3698 C.ar    1  UNL1        0.0000
    160 C           3.9555    7.3251   -1.7754 C.ar    1  UNL1        0.0000
    161 C           4.0269    6.7233   -0.5171 C.ar    1  UNL1        0.0000
    162 C           2.8558    6.3440    0.1456 C.ar    1  UNL1        0.0000
    163 C          -2.8269    4.1480   -4.1423 C.3     1  UNL1        0.0000
    164 C          -3.6495    3.2349   -5.0835 C.3     1  UNL1        0.0000
    165 C          -1.5900    4.6808   -4.8999 C.3     1  UNL1        0.0000
    166 C          -3.7213    5.3557   -3.7740 C.3     1  UNL1        0.0000
    167 H           2.8881    3.3617   -2.2677 H       1  UNL1        0.0000
    168 H           8.0165    4.0400    1.4851 H       1  UNL1        0.0000
    169 H           5.4452    6.5586    3.8241 H       1  UNL1        0.0000
    170 H           3.6697    4.8297    3.7464 H       1  UNL1        0.0000
    171 H           4.0501    2.7109    2.5332 H       1  UNL1        0.0000
    172 H           9.8947    1.4387    1.8008 H       1  UNL1        0.0000
    173 H          11.1945    1.8182    3.8683 H       1  UNL1        0.0000
    174 H           6.2987    1.0532    4.1507 H       1  UNL1        0.0000
    175 H           7.4579   -1.7146    3.0870 H       1  UNL1        0.0000
    176 H           9.1808   -3.3504    3.7636 H       1  UNL1        0.0000
    177 H          11.1414   -3.7700    2.3071 H       1  UNL1        0.0000
    178 H          11.3865   -2.5375    0.1701 H       1  UNL1        0.0000
    179 H           9.6814   -0.8864   -0.5147 H       1  UNL1        0.0000
    180 H           6.3580   -3.0219    0.4303 H       1  UNL1        0.0000
    181 H           6.7171   -5.0523   -0.9247 H       1  UNL1        0.0000
    182 H           7.3723   -4.8625   -3.3083 H       1  UNL1        0.0000
    183 H           7.3523   -0.5853   -2.9896 H       1  UNL1        0.0000
    184 H           5.3709    1.4577   -4.5303 H       1  UNL1        0.0000
    185 H           4.9362    2.4211   -5.9734 H       1  UNL1        0.0000
    186 H           3.7681    1.2333   -5.3186 H       1  UNL1        0.0000
    187 H           4.7292    4.8652   -3.0890 H       1  UNL1        0.0000
    188 H           5.5295    4.5336   -4.6658 H       1  UNL1        0.0000
    189 H           5.9223    3.5243   -3.2381 H       1  UNL1        0.0000
    190 H           2.4387    4.6852   -4.2845 H       1  UNL1        0.0000
    191 H           2.0989    3.2667   -5.3392 H       1  UNL1        0.0000
    192 H           3.3801    4.4196   -5.7921 H       1  UNL1        0.0000
    193 H           3.3629   -2.9529   -2.4209 H       1  UNL1        0.0000
    194 H           4.1763   -7.3311    2.2630 H       1  UNL1        0.0000
    195 H           6.3278   -6.7274    3.3206 H       1  UNL1        0.0000
    196 H           6.8095   -4.3680    3.9073 H       1  UNL1        0.0000
    197 H           1.3775   -5.0297    4.5593 H       1  UNL1        0.0000
    198 H           1.8420   -5.9025    6.8243 H       1  UNL1        0.0000
    199 H           2.1531   -8.3360    7.1830 H       1  UNL1        0.0000
    200 H           2.0057   -9.9019    5.2664 H       1  UNL1        0.0000
    201 H           1.5531   -9.0445    2.9932 H       1  UNL1        0.0000
    202 H          -1.4946   -6.2160    3.8441 H       1  UNL1        0.0000
    203 H          -3.1708   -7.6540    4.9505 H       1  UNL1        0.0000
    204 H          -3.7078   -9.8872    4.0171 H       1  UNL1        0.0000
    205 H          -2.5544  -10.6884    1.9737 H       1  UNL1        0.0000
    206 H          -0.8687   -9.2655    0.8591 H       1  UNL1        0.0000
    207 H          -0.5814   -7.4072   -2.1629 H       1  UNL1        0.0000
    208 H          -2.6582   -8.0222   -3.3451 H       1  UNL1        0.0000
    209 H          -4.8635   -7.6081   -2.2923 H       1  UNL1        0.0000
    210 H          -2.9289   -5.8623    1.1117 H       1  UNL1        0.0000
    211 H           3.0397   -2.4115   -5.5031 H       1  UNL1        0.0000
    212 H           4.0450   -3.8142   -5.9460 H       1  UNL1        0.0000
    213 H           4.5152   -2.7919   -4.5446 H       1  UNL1        0.0000
    214 H           1.0626   -5.4557   -4.3072 H       1  UNL1        0.0000
    215 H           1.8985   -5.1544   -5.8569 H       1  UNL1        0.0000
    216 H           0.8723   -3.8719   -5.1429 H       1  UNL1        0.0000
    217 H           4.6106   -5.0232   -3.1996 H       1  UNL1        0.0000
    218 H           4.0740   -5.8824   -4.6871 H       1  UNL1        0.0000
    219 H           3.1660   -6.0942   -3.1565 H       1  UNL1        0.0000
    220 H          -2.8878   -3.3614   -2.2681 H       1  UNL1        0.0000
    221 H          -6.3581    3.0218    0.4310 H       1  UNL1        0.0000
    222 H          -7.3723    4.8632   -3.3072 H       1  UNL1        0.0000
    223 H          -7.6761    2.6291   -4.3364 H       1  UNL1        0.0000
    224 H          -7.3518    0.5859   -2.9896 H       1  UNL1        0.0000
    225 H          -7.4581    1.7139    3.0872 H       1  UNL1        0.0000
    226 H          -9.1811    3.3495    3.7640 H       1  UNL1        0.0000
    227 H         -11.1417    3.7693    2.3075 H       1  UNL1        0.0000
    228 H         -11.3865    2.5373    0.1702 H       1  UNL1        0.0000
    229 H          -9.6813    0.8863   -0.5148 H       1  UNL1        0.0000
    230 H          -9.8947   -1.4393    1.8000 H       1  UNL1        0.0000
    231 H         -11.1948   -1.8194    3.8672 H       1  UNL1        0.0000
    232 H         -10.0587   -1.8258    6.0709 H       1  UNL1        0.0000
    233 H          -7.6122   -1.4467    6.2073 H       1  UNL1        0.0000
    234 H          -6.2991   -1.0541    4.1505 H       1  UNL1        0.0000
    235 H          -8.0162   -4.0406    1.4837 H       1  UNL1        0.0000
    236 H          -7.6174   -6.1575    2.6973 H       1  UNL1        0.0000
    237 H          -5.4453   -6.5593    3.8229 H       1  UNL1        0.0000
    238 H          -4.0503   -2.7112    2.5333 H       1  UNL1        0.0000
    239 H          -3.7678   -1.2325   -5.3187 H       1  UNL1        0.0000
    240 H          -5.3706   -1.4569   -4.5304 H       1  UNL1        0.0000
    241 H          -4.9359   -2.4202   -5.9736 H       1  UNL1        0.0000
    242 H          -4.7291   -4.8647   -3.0896 H       1  UNL1        0.0000
    243 H          -5.5293   -4.5328   -4.6664 H       1  UNL1        0.0000
    244 H          -5.9221   -3.5237   -3.2385 H       1  UNL1        0.0000
    245 H          -2.0987   -3.2661   -5.3396 H       1  UNL1        0.0000
    246 H          -3.3800   -4.4188   -5.7926 H       1  UNL1        0.0000
    247 H          -2.4385   -4.6847   -4.2850 H       1  UNL1        0.0000
    248 H          -3.3626    2.9529   -2.4209 H       1  UNL1        0.0000
    249 H          -4.1767    7.3311    2.2628 H       1  UNL1        0.0000
    250 H          -6.8099    4.3678    3.9068 H       1  UNL1        0.0000
    251 H          -5.1328    2.6028    3.4328 H       1  UNL1        0.0000
    252 H          -2.9770    3.1899    2.3812 H       1  UNL1        0.0000
    253 H          -1.5535    9.0446    2.9933 H       1  UNL1        0.0000
    254 H          -2.0062    9.9019    5.2665 H       1  UNL1        0.0000
    255 H          -2.1538    8.3360    7.1830 H       1  UNL1        0.0000
    256 H          -1.8427    5.9025    6.8243 H       1  UNL1        0.0000
    257 H          -1.3780    5.0297    4.5594 H       1  UNL1        0.0000
    258 H           0.8686    9.2656    0.8596 H       1  UNL1        0.0000
    259 H           2.5543   10.6884    1.9745 H       1  UNL1        0.0000
    260 H           3.7077    9.8869    4.0177 H       1  UNL1        0.0000
    261 H           3.1705    7.6536    4.9509 H       1  UNL1        0.0000
    262 H           1.4943    6.2157    3.8443 H       1  UNL1        0.0000
    263 H           0.5814    7.4077   -2.1626 H       1  UNL1        0.0000
    264 H           2.6582    8.0228   -3.3447 H       1  UNL1        0.0000
    265 H           4.8634    7.6085   -2.2918 H       1  UNL1        0.0000
    266 H           2.9287    5.8623    1.1119 H       1  UNL1        0.0000
    267 H          -4.5149    2.7917   -4.5448 H       1  UNL1        0.0000
    268 H          -3.0393    2.4115   -5.5032 H       1  UNL1        0.0000
    269 H          -4.0448    3.8140   -5.9461 H       1  UNL1        0.0000
    270 H          -1.0627    5.4559   -4.3072 H       1  UNL1        0.0000
    271 H          -1.8985    5.1545   -5.8569 H       1  UNL1        0.0000
    272 H          -0.8722    3.8721   -5.1429 H       1  UNL1        0.0000
    273 H          -4.6107    5.0230   -3.1998 H       1  UNL1        0.0000
    274 H          -4.0741    5.8823   -4.6873 H       1  UNL1        0.0000
    275 H          -3.1662    6.0942   -3.1566 H       1  UNL1        0.0000
    276 O          -4.2291   -3.7199   -0.4222 O.2     1  UNL1        0.0000
    277 O          -4.4900    0.2276   -2.7132 O.2     1  UNL1        0.0000
    278 O          -0.2923   -4.4992   -2.3720 O.2     1  UNL1        0.0000
    279 O           3.8310   -4.0043   -0.4557 O.2     1  UNL1        0.0000
    280 O           4.4903   -0.2272   -2.7134 O.2     1  UNL1        0.0000
    281 O           4.2294    3.7200   -0.4218 O.2     1  UNL1        0.0000
    282 O          -3.8310    4.0043   -0.4558 O.2     1  UNL1        0.0000
    283 O           0.2923    4.4996   -2.3720 O.2     1  UNL1        0.0000
    284 H           7.6765   -2.6283   -4.3369 H       1  UNL1        0.0000
    285 H           7.6176    6.1567    2.6990 H       1  UNL1        0.0000
    286 H          10.0580    1.8242    6.0718 H       1  UNL1        0.0000
    287 H           7.6116    1.4452    6.2077 H       1  UNL1        0.0000
    288 H           4.9904    6.5390   -0.0589 H       1  UNL1        0.0000
    289 H          -6.3282    6.7272    3.3202 H       1  UNL1        0.0000
    290 H           5.1325   -2.6029    3.4331 H       1  UNL1        0.0000
    291 H           2.9769   -3.1899    2.3812 H       1  UNL1        0.0000
    292 H          -4.9905   -6.5389   -0.0593 H       1  UNL1        0.0000
    293 H          -6.7173    5.0524   -0.9236 H       1  UNL1        0.0000
    294 H          -3.6700   -4.8301    3.7462 H       1  UNL1        0.0000
@<TRIPOS>BOND
     1     1    14    1
     2     1    10    1
     3     1    12    1
     4     1     8    1
     5     1     2    1
     6     3   130    1
     7     3    13    1
     8     4    93    1
     9     4    11    1
    10     5    19    1
    11     5     7    1
    12     6    56    1
    13     6     9    1
    14     7     2    1
    15     8     5    1
    16     9     2    1
    17    10     6    1
    18    11     2    1
    19    12     4    1
    20    13     2    1
    21    14     3    1
    22    15    20   am
    23    16    60   am
    24    16    57   am
    25    17    97   am
    26    18   134   am
    27    18   131   am
    28    19   167    1
    29    19    15    1
    30    20   281    2
    31    20    21    1
    32    21    27   ar
    33    22    24   ar
    34    22    21   ar
    35    23    15   am
    36    23    22    1
    37    24    25   ar
    38    25    40    1
    39    25    26   ar
    40    26    34    1
    41    27    26   ar
    42    27    28    1
    43    28    29   ar
    44    28    33   ar
    45    29    30   ar
    46    30   285    1
    47    30    31   ar
    48    31   169    1
    49    32    31   ar
    50    32   170    1
    51    33    32   ar
    52    34    39   ar
    53    35    34   ar
    54    35    36   ar
    55    36    37   ar
    56    37    38   ar
    57    37   286    1
    58    38   287    1
    59    39   174    1
    60    39    38   ar
    61    40    41   ar
    62    41    42   ar
    63    41   175    1
    64    42   176    1
    65    43   177    1
    66    43    42   ar
    67    44    43   ar
    68    45    44   ar
    69    45    40   ar
    70    46    47   ar
    71    46    24    1
    72    47   180    1
    73    48   181    1
    74    48    47   ar
    75    49    48   ar
    76    50    49   ar
    77    50    51   ar
    78    51    46   ar
    79    52    54    1
    80    52    19    1
    81    53   184    1
    82    53    52    1
    83    54   189    1
    84    54   187    1
    85    55   190    1
    86    55    52    1
    87    56   193    1
    88    56    16    1
    89    57   279    2
    90    57    58    1
    91    58    64   ar
    92    59    61   ar
    93    59    58   ar
    94    60    59    1
    95    61    62   ar
    96    62    63   ar
    97    62    77    1
    98    63    71    1
    99    64    65    1
   100    64    63   ar
   101    65    66   ar
   102    65    70   ar
   103    66    67   ar
   104    67   195    1
   105    67    68   ar
   106    68   196    1
   107    69   290    1
   108    69    68   ar
   109    70    69   ar
   110    71    76   ar
   111    71    72   ar
   112    72    73   ar
   113    73    74   ar
   114    73   198    1
   115    74   199    1
   116    75   200    1
   117    75    74   ar
   118    76    75   ar
   119    77    78   ar
   120    78   202    1
   121    78    79   ar
   122    79   203    1
   123    80   204    1
   124    80    79   ar
   125    81    80   ar
   126    82    77   ar
   127    82    81   ar
   128    83    88   ar
   129    83    61    1
   130    84    83   ar
   131    85    86   ar
   132    85    84   ar
   133    86    87   ar
   134    87   292    1
   135    87    88   ar
   136    88   210    1
   137    89    92    1
   138    89    56    1
   139    90   213    1
   140    90    89    1
   141    91   214    1
   142    91    89    1
   143    92   217    1
   144    92   219    1
   145    93   220    1
   146    93    17    1
   147    94    17   am
   148    94    95    1
   149    95   101   ar
   150    95    96   ar
   151    96    98   ar
   152    97   276    2
   153    97    96    1
   154    98    99   ar
   155    98   120    1
   156    99   114    1
   157   100   108    1
   158   100    99   ar
   159   101   100   ar
   160   102   103   ar
   161   102   101    1
   162   103   221    1
   163   104   293    1
   164   104   103   ar
   165   105   104   ar
   166   106   105   ar
   167   106   107   ar
   168   107   102   ar
   169   108   109   ar
   170   109   110   ar
   171   109   225    1
   172   110   226    1
   173   111   227    1
   174   111   110   ar
   175   112   111   ar
   176   113   112   ar
   177   113   108   ar
   178   114   119   ar
   179   115   114   ar
   180   115   116   ar
   181   116   117   ar
   182   117   118   ar
   183   117   232    1
   184   118   233    1
   185   119   234    1
   186   119   118   ar
   187   120   121   ar
   188   120   125   ar
   189   121   122   ar
   190   122   236    1
   191   122   123   ar
   192   123   237    1
   193   124   123   ar
   194   124   294    1
   195   125   124   ar
   196   126   128    1
   197   126    93    1
   198   127   240    1
   199   127   126    1
   200   128   244    1
   201   128   242    1
   202   129   247    1
   203   129   126    1
   204   130   248    1
   205   130    18    1
   206   131   282    2
   207   131   132    1
   208   132   138   ar
   209   133   135   ar
   210   133   132   ar
   211   134   133    1
   212   135   136   ar
   213   136   137   ar
   214   136   151    1
   215   137   145    1
   216   138   139    1
   217   138   137   ar
   218   139   140   ar
   219   139   144   ar
   220   140   141   ar
   221   141   289    1
   222   141   142   ar
   223   142   250    1
   224   143   251    1
   225   143   142   ar
   226   144   143   ar
   227   145   146   ar
   228   145   150   ar
   229   146   147   ar
   230   147   254    1
   231   147   148   ar
   232   148   255    1
   233   149   148   ar
   234   149   256    1
   235   150   149   ar
   236   151   156   ar
   237   152   151   ar
   238   152   153   ar
   239   153   154   ar
   240   154   260    1
   241   154   155   ar
   242   155   261    1
   243   156   262    1
   244   156   155   ar
   245   157   162   ar
   246   157   135    1
   247   158   157   ar
   248   159   160   ar
   249   159   158   ar
   250   160   161   ar
   251   161   288    1
   252   161   162   ar
   253   162   266    1
   254   163   166    1
   255   163   130    1
   256   164   267    1
   257   164   163    1
   258   165   270    1
   259   165   163    1
   260   166   273    1
   261   166   275    1
   262   168    29    1
   263   171    33    1
   264   172    35    1
   265   173    36    1
   266   178    44    1
   267   179    45    1
   268   182    49    1
   269   183    51    1
   270   185    53    1
   271   186    53    1
   272   188    54    1
   273   191    55    1
   274   192    55    1
   275   194    66    1
   276   197    72    1
   277   201    76    1
   278   205    81    1
   279   206    82    1
   280   207    84    1
   281   208    85    1
   282   209    86    1
   283   211    90    1
   284   212    90    1
   285   215    91    1
   286   216    91    1
   287   218    92    1
   288   222   105    1
   289   223   106    1
   290   224   107    1
   291   228   112    1
   292   229   113    1
   293   230   115    1
   294   231   116    1
   295   235   121    1
   296   238   125    1
   297   239   127    1
   298   241   127    1
   299   243   128    1
   300   245   129    1
   301   246   129    1
   302   249   140    1
   303   252   144    1
   304   253   146    1
   305   257   150    1
   306   258   152    1
   307   259   153    1
   308   263   158    1
   309   264   159    1
   310   265   160    1
   311   268   164    1
   312   269   164    1
   313   271   165    1
   314   272   165    1
   315   274   166    1
   316   277    94    2
   317   278    60    2
   318   280    23    2
   319   283   134    2
   320   284    50    1
   321   291    70    1
