@<TRIPOS>MOLECULE
RhRh_S-TPPTTL4_5_ONIOM_sp
 294 321 0 0 0
SMALL
GASTEIGER

@<TRIPOS>ATOM
      1 Rh         -0.0355   -0.0525   -4.1888 Rh      1  UNL1        0.0000
      2 Rh         -0.0630   -0.0402   -1.8030 Rh      1  UNL1        0.0000
      3 C           1.9988    1.6002   -2.9809 C.3     1  UNL1        0.0000
      4 C          -1.6516    2.0398   -3.0224 C.3     1  UNL1        0.0000
      5 C           1.5866   -2.1049   -2.9731 C.3     1  UNL1        0.0000
      6 C          -2.0595   -1.7404   -3.0033 C.3     1  UNL1        0.0000
      7 O           1.1653   -1.6757   -1.8504 O.3     1  UNL1        0.0000
      8 O           1.2935   -1.6271   -4.1051 O.3     1  UNL1        0.0000
      9 O          -1.6913   -1.2830   -1.8726 O.3     1  UNL1        0.0000
     10 O          -1.5788   -1.4157   -4.1256 O.3     1  UNL1        0.0000
     11 O          -1.2828    1.6050   -1.8841 O.3     1  UNL1        0.0000
     12 O          -1.3503    1.5358   -4.1408 O.3     1  UNL1        0.0000
     13 O           1.5824    1.1793   -1.8529 O.3     1  UNL1        0.0000
     14 O           1.5206    1.2927   -4.1091 O.3     1  UNL1        0.0000
     15 N           2.2347   -4.0484   -1.6450 N.am    1  UNL1        0.0000
     16 N          -4.2406   -2.2761   -2.0394 N.am    1  UNL1        0.0000
     17 N          -2.1815    4.0844   -1.7884 N.am    1  UNL1        0.0000
     18 N           4.2001    1.9923   -1.9882 N.am    1  UNL1        0.0000
     19 C           2.6081   -3.2517   -2.8150 C.3     1  UNL1        0.0000
     20 C           2.9607   -3.8887   -0.4487 C.2     1  UNL1        0.0000
     21 C           2.1524   -4.5413    0.6237 C.ar    1  UNL1        0.0000
     22 C           1.0094   -5.0804    0.0346 C.ar    1  UNL1        0.0000
     23 C           0.9637   -4.5937   -1.3853 C.2     1  UNL1        0.0000
     24 C           0.1009   -5.8490    0.7604 C.ar    1  UNL1        0.0000
     25 C           0.3744   -6.0440    2.1411 C.ar    1  UNL1        0.0000
     26 C           1.4988   -5.4257    2.7537 C.ar    1  UNL1        0.0000
     27 C           2.4073   -4.6563    1.9861 C.ar    1  UNL1        0.0000
     28 C           3.5499   -3.9274    2.5924 C.ar    1  UNL1        0.0000
     29 C           3.5855   -2.5231    2.5508 C.ar    1  UNL1        0.0000
     30 C           4.6256   -1.8261    3.1709 C.ar    1  UNL1        0.0000
     31 C           5.6305   -2.5246    3.8449 C.ar    1  UNL1        0.0000
     32 C           5.6119   -3.9220    3.8759 C.ar    1  UNL1        0.0000
     33 C           4.5764   -4.6236    3.2505 C.ar    1  UNL1        0.0000
     34 C           1.7324   -5.5835    4.2137 C.ar    1  UNL1        0.0000
     35 C           1.6007   -4.4810    5.0735 C.ar    1  UNL1        0.0000
     36 C           1.8238   -4.6296    6.4454 C.ar    1  UNL1        0.0000
     37 C           2.1774   -5.8776    6.9662 C.ar    1  UNL1        0.0000
     38 C           2.3101   -6.9789    6.1156 C.ar    1  UNL1        0.0000
     39 C           2.0901   -6.8341    4.7428 C.ar    1  UNL1        0.0000
     40 C          -0.5294   -6.9044    2.9521 C.ar    1  UNL1        0.0000
     41 C          -1.3022   -6.3475    3.9844 C.ar    1  UNL1        0.0000
     42 C          -2.1688   -7.1536    4.7279 C.ar    1  UNL1        0.0000
     43 C          -2.2701   -8.5185    4.4459 C.ar    1  UNL1        0.0000
     44 C          -1.5024   -9.0801    3.4217 C.ar    1  UNL1        0.0000
     45 C          -0.6334   -8.2776    2.6766 C.ar    1  UNL1        0.0000
     46 C          -1.0824   -6.4471    0.0848 C.ar    1  UNL1        0.0000
     47 C          -2.3787   -6.2279    0.5818 C.ar    1  UNL1        0.0000
     48 C          -3.4807   -6.8372   -0.0257 C.ar    1  UNL1        0.0000
     49 C          -3.3018   -7.6464   -1.1499 C.ar    1  UNL1        0.0000
     50 C          -2.0187   -7.8605   -1.6592 C.ar    1  UNL1        0.0000
     51 C          -0.9116   -7.2717   -1.0409 C.ar    1  UNL1        0.0000
     52 C           2.9593   -4.1039   -4.0700 C.3     1  UNL1        0.0000
     53 C           1.7109   -4.7195   -4.7416 C.3     1  UNL1        0.0000
     54 C           3.9020   -5.2586   -3.6588 C.3     1  UNL1        0.0000
     55 C           3.7133   -3.2349   -5.1057 C.3     1  UNL1        0.0000
     56 C          -3.1520   -2.8212   -2.8540 C.3     1  UNL1        0.0000
     57 C          -4.8235   -1.0031   -2.1642 C.2     1  UNL1        0.0000
     58 C          -5.8302   -0.9072   -1.0499 C.ar    1  UNL1        0.0000
     59 C          -5.6433   -2.0098   -0.2173 C.ar    1  UNL1        0.0000
     60 C          -4.6079   -2.8903   -0.8326 C.2     1  UNL1        0.0000
     61 C          -6.3768   -2.1943    0.9472 C.ar    1  UNL1        0.0000
     62 C          -7.3797   -1.2427    1.2456 C.ar    1  UNL1        0.0000
     63 C          -7.6028   -0.1359    0.3828 C.ar    1  UNL1        0.0000
     64 C          -6.8018    0.0534   -0.7760 C.ar    1  UNL1        0.0000
     65 C          -6.9687    1.2249   -1.6740 C.ar    1  UNL1        0.0000
     66 C          -6.8534    2.5299   -1.1673 C.ar    1  UNL1        0.0000
     67 C          -7.0362    3.6310   -2.0082 C.ar    1  UNL1        0.0000
     68 C          -7.3319    3.4383   -3.3602 C.ar    1  UNL1        0.0000
     69 C          -7.4513    2.1436   -3.8718 C.ar    1  UNL1        0.0000
     70 C          -7.2757    1.0396   -3.0325 C.ar    1  UNL1        0.0000
     71 C          -8.7005    0.8254    0.6784 C.ar    1  UNL1        0.0000
     72 C          -8.6622    1.6123    1.8409 C.ar    1  UNL1        0.0000
     73 C          -9.6868    2.5243    2.1084 C.ar    1  UNL1        0.0000
     74 C         -10.7560    2.6565    1.2183 C.ar    1  UNL1        0.0000
     75 C         -10.8030    1.8750    0.0605 C.ar    1  UNL1        0.0000
     76 C          -9.7804    0.9609   -0.2097 C.ar    1  UNL1        0.0000
     77 C          -8.2051   -1.4223    2.4684 C.ar    1  UNL1        0.0000
     78 C          -9.5703   -1.7330    2.3625 C.ar    1  UNL1        0.0000
     79 C         -10.3439   -1.8991    3.5149 C.ar    1  UNL1        0.0000
     80 C          -9.7594   -1.7594    4.7770 C.ar    1  UNL1        0.0000
     81 C          -8.4001   -1.4530    4.8887 C.ar    1  UNL1        0.0000
     82 C          -7.6235   -1.2845    3.7389 C.ar    1  UNL1        0.0000
     83 C          -6.0985   -3.3636    1.8142 C.ar    1  UNL1        0.0000
     84 C          -7.0316   -4.4063    1.9221 C.ar    1  UNL1        0.0000
     85 C          -6.7547   -5.5145    2.7291 C.ar    1  UNL1        0.0000
     86 C          -5.5499   -5.5840    3.4352 C.ar    1  UNL1        0.0000
     87 C          -4.6222   -4.5434    3.3383 C.ar    1  UNL1        0.0000
     88 C          -4.8918   -3.4376    2.5277 C.ar    1  UNL1        0.0000
     89 C          -3.6522   -3.5436   -4.1381 C.3     1  UNL1        0.0000
     90 C          -2.4778   -4.2622   -4.8449 C.3     1  UNL1        0.0000
     91 C          -4.3293   -2.5709   -5.1288 C.3     1  UNL1        0.0000
     92 C          -4.6844   -4.6268   -3.7436 C.3     1  UNL1        0.0000
     93 C          -2.6125    3.2447   -2.9082 C.3     1  UNL1        0.0000
     94 C          -0.8774    4.5505   -1.5420 C.2     1  UNL1        0.0000
     95 C          -0.9186    5.1785   -0.1765 C.ar    1  UNL1        0.0000
     96 C          -2.1407    4.8403    0.4044 C.ar    1  UNL1        0.0000
     97 C          -2.9689    4.1484   -0.6260 C.2     1  UNL1        0.0000
     98 C          -2.4531    5.1654    1.7189 C.ar    1  UNL1        0.0000
     99 C          -1.4908    5.8963    2.4549 C.ar    1  UNL1        0.0000
    100 C          -0.2662    6.2909    1.8517 C.ar    1  UNL1        0.0000
    101 C           0.0377    5.9256    0.5115 C.ar    1  UNL1        0.0000
    102 C           1.2857    6.3607   -0.1728 C.ar    1  UNL1        0.0000
    103 C           1.2126    7.0946   -1.3696 C.ar    1  UNL1        0.0000
    104 C           2.3783    7.5578   -1.9867 C.ar    1  UNL1        0.0000
    105 C           3.6242    7.3092   -1.4062 C.ar    1  UNL1        0.0000
    106 C           3.7075    6.5838   -0.2157 C.ar    1  UNL1        0.0000
    107 C           2.5458    6.0981    0.3921 C.ar    1  UNL1        0.0000
    108 C           0.7131    7.0893    2.6366 C.ar    1  UNL1        0.0000
    109 C           1.3756    6.5144    3.7338 C.ar    1  UNL1        0.0000
    110 C           2.3127    7.2572    4.4570 C.ar    1  UNL1        0.0000
    111 C           2.5943    8.5760    4.0902 C.ar    1  UNL1        0.0000
    112 C           1.9364    9.1553    3.0013 C.ar    1  UNL1        0.0000
    113 C           0.9972    8.4162    2.2759 C.ar    1  UNL1        0.0000
    114 C          -1.7796    6.2567    3.8684 C.ar    1  UNL1        0.0000
    115 C          -1.9785    7.5986    4.2314 C.ar    1  UNL1        0.0000
    116 C          -2.2515    7.9335    5.5608 C.ar    1  UNL1        0.0000
    117 C          -2.3312    6.9324    6.5331 C.ar    1  UNL1        0.0000
    118 C          -2.1376    5.5946    6.1774 C.ar    1  UNL1        0.0000
    119 C          -1.8623    5.2557    4.8496 C.ar    1  UNL1        0.0000
    120 C          -3.7482    4.7373    2.3015 C.ar    1  UNL1        0.0000
    121 C          -4.0209    3.3718    2.4855 C.ar    1  UNL1        0.0000
    122 C          -5.2345    2.9668    3.0479 C.ar    1  UNL1        0.0000
    123 C          -6.1811    3.9213    3.4313 C.ar    1  UNL1        0.0000
    124 C          -5.9165    5.2817    3.2494 C.ar    1  UNL1        0.0000
    125 C          -4.7036    5.6909    2.6868 C.ar    1  UNL1        0.0000
    126 C          -2.9345    4.0531   -4.1992 C.3     1  UNL1        0.0000
    127 C          -3.7022    3.1653   -5.2085 C.3     1  UNL1        0.0000
    128 C          -1.6634    4.6112   -4.8776 C.3     1  UNL1        0.0000
    129 C          -3.8523    5.2462   -3.8415 C.3     1  UNL1        0.0000
    130 C           3.1611    2.6016   -2.8217 C.3     1  UNL1        0.0000
    131 C           4.5560    2.5729   -0.7610 C.2     1  UNL1        0.0000
    132 C           5.5756    1.6696   -0.1533 C.ar    1  UNL1        0.0000
    133 C           5.7696    0.5909   -1.0150 C.ar    1  UNL1        0.0000
    134 C           4.7592    0.7101   -2.1244 C.2     1  UNL1        0.0000
    135 C           6.7698   -0.3511   -0.7829 C.ar    1  UNL1        0.0000
    136 C           7.5869   -0.1683    0.3660 C.ar    1  UNL1        0.0000
    137 C           7.3437    0.9014    1.2704 C.ar    1  UNL1        0.0000
    138 C           6.3135    1.8364    1.0119 C.ar    1  UNL1        0.0000
    139 C           6.0277    2.9891    1.9007 C.ar    1  UNL1        0.0000
    140 C           4.7969    3.0727    2.5723 C.ar    1  UNL1        0.0000
    141 C           4.5087    4.1789    3.3771 C.ar    1  UNL1        0.0000
    142 C           5.4467    5.2053    3.5178 C.ar    1  UNL1        0.0000
    143 C           6.6766    5.1242    2.8581 C.ar    1  UNL1        0.0000
    144 C           6.9684    4.0199    2.0514 C.ar    1  UNL1        0.0000
    145 C           8.1806    1.0634    2.4890 C.ar    1  UNL1        0.0000
    146 C           9.5437    1.3832    2.3768 C.ar    1  UNL1        0.0000
    147 C          10.3276    1.5315    3.5246 C.ar    1  UNL1        0.0000
    148 C           9.7555    1.3680    4.7894 C.ar    1  UNL1        0.0000
    149 C           8.3978    1.0582    4.9083 C.ar    1  UNL1        0.0000
    150 C           7.6110    0.9081    3.7630 C.ar    1  UNL1        0.0000
    151 C           8.7406   -1.0815    0.5911 C.ar    1  UNL1        0.0000
    152 C           8.7641   -1.9380    1.7029 C.ar    1  UNL1        0.0000
    153 C           9.8457   -2.7992    1.9063 C.ar    1  UNL1        0.0000
    154 C          10.9101   -2.8116    1.0008 C.ar    1  UNL1        0.0000
    155 C          10.8942   -1.9619   -0.1088 C.ar    1  UNL1        0.0000
    156 C           9.8143   -1.0983   -0.3143 C.ar    1  UNL1        0.0000
    157 C           6.9747   -1.4785   -1.7294 C.ar    1  UNL1        0.0000
    158 C           6.9532   -2.8062   -1.2700 C.ar    1  UNL1        0.0000
    159 C           7.1965   -3.8616   -2.1525 C.ar    1  UNL1        0.0000
    160 C           7.4523   -3.6020   -3.5014 C.ar    1  UNL1        0.0000
    161 C           7.4749   -2.2851   -3.9675 C.ar    1  UNL1        0.0000
    162 C           7.2433   -1.2257   -3.0854 C.ar    1  UNL1        0.0000
    163 C           3.7259    3.2839   -4.1016 C.3     1  UNL1        0.0000
    164 C           2.6147    4.0935   -4.8116 C.3     1  UNL1        0.0000
    165 C           4.3320    2.2662   -5.0937 C.3     1  UNL1        0.0000
    166 C           4.8379    4.2812   -3.6988 C.3     1  UNL1        0.0000
    167 H           3.5240   -2.7375   -2.4895 H       1  UNL1        0.0000
    168 H           2.7995   -1.9698    2.0513 H       1  UNL1        0.0000
    169 H           6.4255   -1.9836    4.3414 H       1  UNL1        0.0000
    170 H           6.3963   -4.4613    4.3907 H       1  UNL1        0.0000
    171 H           4.5682   -5.7059    3.2874 H       1  UNL1        0.0000
    172 H           1.3231   -3.5107    4.6804 H       1  UNL1        0.0000
    173 H           1.7214   -3.7777    7.1049 H       1  UNL1        0.0000
    174 H           2.2008   -7.6923    4.0915 H       1  UNL1        0.0000
    175 H          -1.2404   -5.2889    4.2036 H       1  UNL1        0.0000
    176 H          -2.7661   -6.7189    5.5188 H       1  UNL1        0.0000
    177 H          -2.9440   -9.1407    5.0203 H       1  UNL1        0.0000
    178 H          -1.5818  -10.1373    3.2042 H       1  UNL1        0.0000
    179 H          -0.0444   -8.7226    1.8841 H       1  UNL1        0.0000
    180 H          -2.5366   -5.5843    1.4375 H       1  UNL1        0.0000
    181 H          -4.4753   -6.6703    0.3681 H       1  UNL1        0.0000
    182 H          -4.1573   -8.1071   -1.6264 H       1  UNL1        0.0000
    183 H           0.0790   -7.4649   -1.4337 H       1  UNL1        0.0000
    184 H           1.2550   -5.5008   -4.1009 H       1  UNL1        0.0000
    185 H           1.9908   -5.2120   -5.6980 H       1  UNL1        0.0000
    186 H           0.9436   -3.9534   -4.9713 H       1  UNL1        0.0000
    187 H           4.7997   -4.8632   -3.1425 H       1  UNL1        0.0000
    188 H           4.2364   -5.8354   -4.5484 H       1  UNL1        0.0000
    189 H           3.3930   -5.9679   -2.9714 H       1  UNL1        0.0000
    190 H           4.5867   -2.7322   -4.6377 H       1  UNL1        0.0000
    191 H           3.0593   -2.4585   -5.5491 H       1  UNL1        0.0000
    192 H           4.0893   -3.8594   -5.9448 H       1  UNL1        0.0000
    193 H          -2.6844   -3.5743   -2.2065 H       1  UNL1        0.0000
    194 H          -6.6195    2.6936   -0.1225 H       1  UNL1        0.0000
    195 H          -6.9425    4.6341   -1.6126 H       1  UNL1        0.0000
    196 H          -7.4664    4.2920   -4.0115 H       1  UNL1        0.0000
    197 H          -7.8390    1.5187    2.5358 H       1  UNL1        0.0000
    198 H          -9.6516    3.1291    3.0052 H       1  UNL1        0.0000
    199 H         -11.5485    3.3637    1.4262 H       1  UNL1        0.0000
    200 H         -11.6320    1.9773   -0.6276 H       1  UNL1        0.0000
    201 H          -9.8284    0.3588   -1.1087 H       1  UNL1        0.0000
    202 H         -10.0314   -1.8476    1.3892 H       1  UNL1        0.0000
    203 H         -11.3961   -2.1373    3.4296 H       1  UNL1        0.0000
    204 H         -10.3596   -1.8888    5.6682 H       1  UNL1        0.0000
    205 H          -7.9488   -1.3445    5.8664 H       1  UNL1        0.0000
    206 H          -6.5724   -1.0413    3.8360 H       1  UNL1        0.0000
    207 H          -7.9659   -4.3632    1.3760 H       1  UNL1        0.0000
    208 H          -7.4736   -6.3198    2.8064 H       1  UNL1        0.0000
    209 H          -5.3361   -6.4424    4.0590 H       1  UNL1        0.0000
    210 H          -4.1639   -2.6387    2.4561 H       1  UNL1        0.0000
    211 H          -1.7456   -3.5471   -5.2683 H       1  UNL1        0.0000
    212 H          -2.8486   -4.8820   -5.6898 H       1  UNL1        0.0000
    213 H          -1.9450   -4.9332   -4.1371 H       1  UNL1        0.0000
    214 H          -4.6379   -3.1107   -6.0501 H       1  UNL1        0.0000
    215 H          -3.6484   -1.7517   -5.4336 H       1  UNL1        0.0000
    216 H          -5.2431   -2.1237   -4.6852 H       1  UNL1        0.0000
    217 H          -4.2429   -5.3455   -3.0196 H       1  UNL1        0.0000
    218 H          -5.0197   -5.1984   -4.6362 H       1  UNL1        0.0000
    219 H          -5.5862   -4.1725   -3.2804 H       1  UNL1        0.0000
    220 H          -3.5511    2.8016   -2.5463 H       1  UNL1        0.0000
    221 H           0.2522    7.3205   -1.8167 H       1  UNL1        0.0000
    222 H           4.5254    7.6746   -1.8811 H       1  UNL1        0.0000
    223 H           4.6737    6.3865    0.2312 H       1  UNL1        0.0000
    224 H           2.6299    5.5205    1.3036 H       1  UNL1        0.0000
    225 H           1.1732    5.4895    4.0195 H       1  UNL1        0.0000
    226 H           2.8241    6.8087    5.2988 H       1  UNL1        0.0000
    227 H           3.3226    9.1489    4.6494 H       1  UNL1        0.0000
    228 H           2.1554   10.1767    2.7183 H       1  UNL1        0.0000
    229 H           0.4941    8.8735    1.4328 H       1  UNL1        0.0000
    230 H          -1.9254    8.3811    3.4846 H       1  UNL1        0.0000
    231 H          -2.4033    8.9688    5.8370 H       1  UNL1        0.0000
    232 H          -2.5436    7.1933    7.5617 H       1  UNL1        0.0000
    233 H          -2.1999    4.8203    6.9310 H       1  UNL1        0.0000
    234 H          -1.7099    4.2165    4.5851 H       1  UNL1        0.0000
    235 H          -3.2913    2.6244    2.1983 H       1  UNL1        0.0000
    236 H          -5.4381    1.9133    3.1905 H       1  UNL1        0.0000
    237 H          -7.1182    3.6079    3.8721 H       1  UNL1        0.0000
    238 H          -4.5088    6.7474    2.5500 H       1  UNL1        0.0000
    239 H          -4.5829    2.6903   -4.7254 H       1  UNL1        0.0000
    240 H          -3.0615    2.3668   -5.6312 H       1  UNL1        0.0000
    241 H          -4.0683    3.7706   -6.0660 H       1  UNL1        0.0000
    242 H          -1.1798    5.3837   -4.2457 H       1  UNL1        0.0000
    243 H          -1.9228    5.0964   -5.8434 H       1  UNL1        0.0000
    244 H          -0.9244    3.8131   -5.0908 H       1  UNL1        0.0000
    245 H          -4.7716    4.8934   -3.3297 H       1  UNL1        0.0000
    246 H          -4.1550    5.8025   -4.7551 H       1  UNL1        0.0000
    247 H          -3.3352    5.9642   -3.1694 H       1  UNL1        0.0000
    248 H           2.7384    3.3869   -2.1818 H       1  UNL1        0.0000
    249 H           4.0609    2.2851    2.4653 H       1  UNL1        0.0000
    250 H           5.2210    6.0631    4.1378 H       1  UNL1        0.0000
    251 H           7.4019    5.9199    2.9677 H       1  UNL1        0.0000
    252 H           7.9190    3.9735    1.5344 H       1  UNL1        0.0000
    253 H           9.9957    1.5191    1.4021 H       1  UNL1        0.0000
    254 H          11.3781    1.7750    3.4338 H       1  UNL1        0.0000
    255 H          10.3636    1.4837    5.6772 H       1  UNL1        0.0000
    256 H           7.9549    0.9345    5.8880 H       1  UNL1        0.0000
    257 H           6.5606    0.6697    3.8676 H       1  UNL1        0.0000
    258 H           7.9442   -1.9398    2.4055 H       1  UNL1        0.0000
    259 H           9.8576   -3.4579    2.7650 H       1  UNL1        0.0000
    260 H          11.7469   -3.4796    1.1588 H       1  UNL1        0.0000
    261 H          11.7190   -1.9720   -0.8095 H       1  UNL1        0.0000
    262 H           9.8137   -0.4420   -1.1759 H       1  UNL1        0.0000
    263 H           6.7521   -3.0232   -0.2283 H       1  UNL1        0.0000
    264 H           7.1793   -4.8819   -1.7920 H       1  UNL1        0.0000
    265 H           7.6319   -4.4213   -4.1853 H       1  UNL1        0.0000
    266 H           7.2842   -0.2088   -3.4560 H       1  UNL1        0.0000
    267 H           2.1458    4.8159   -4.1091 H       1  UNL1        0.0000
    268 H           1.8208    3.4387   -5.2218 H       1  UNL1        0.0000
    269 H           3.0334    4.6703   -5.6645 H       1  UNL1        0.0000
    270 H           5.2139    1.7568   -4.6532 H       1  UNL1        0.0000
    271 H           4.6777    2.7841   -6.0145 H       1  UNL1        0.0000
    272 H           3.5967    1.4968   -5.4008 H       1  UNL1        0.0000
    273 H           4.4518    5.0252   -2.9704 H       1  UNL1        0.0000
    274 H           5.2178    4.8316   -4.5867 H       1  UNL1        0.0000
    275 H           5.7006    3.7557   -3.2362 H       1  UNL1        0.0000
    276 O          -4.1003    3.7166   -0.5396 O.2     1  UNL1        0.0000
    277 O           0.0722    4.4046   -2.2856 O.2     1  UNL1        0.0000
    278 O          -4.1520   -3.9392   -0.4280 O.2     1  UNL1        0.0000
    279 O          -4.5156   -0.1759   -2.9995 O.2     1  UNL1        0.0000
    280 O           0.0239   -4.5886   -2.1547 O.2     1  UNL1        0.0000
    281 O           4.0344   -3.3278   -0.3674 O.2     1  UNL1        0.0000
    282 O           4.1094    3.6199   -0.3421 O.2     1  UNL1        0.0000
    283 O           4.4345   -0.1070   -2.9639 O.2     1  UNL1        0.0000
    284 H          -1.8805   -8.4904   -2.5284 H       1  UNL1        0.0000
    285 H           4.6443   -0.7446    3.1384 H       1  UNL1        0.0000
    286 H           2.3491   -5.9912    8.0288 H       1  UNL1        0.0000
    287 H           2.5849   -7.9444    6.5199 H       1  UNL1        0.0000
    288 H           7.6766   -2.0848   -5.0117 H       1  UNL1        0.0000
    289 H           3.5572    4.2419    3.8884 H       1  UNL1        0.0000
    290 H          -7.6823    1.9954   -4.9187 H       1  UNL1        0.0000
    291 H          -7.3847    0.0413   -3.4384 H       1  UNL1        0.0000
    292 H          -3.6940   -4.5926    3.8904 H       1  UNL1        0.0000
    293 H           2.3146    8.1200   -2.9093 H       1  UNL1        0.0000
    294 H          -6.6506    6.0194    3.5463 H       1  UNL1        0.0000
@<TRIPOS>BOND
     1     1    12    1
     2     1    10    1
     3     1    14    1
     4     1     8    1
     5     1     2    1
     6     3   130    1
     7     3    13    1
     8     4    93    1
     9     4    11    1
    10     5    19    1
    11     5     7    1
    12     6    56    1
    13     6     9    1
    14     7     2    1
    15     8     5    1
    16     9     2    1
    17    10     6    1
    18    11     2    1
    19    12     4    1
    20    13     2    1
    21    14     3    1
    22    15    23   am
    23    15    20   am
    24    16    60   am
    25    17    94   am
    26    17    97   am
    27    18   131   am
    28    19   167    1
    29    19    15    1
    30    20   281    2
    31    20    21    1
    32    21    27   ar
    33    22    21   ar
    34    22    24   ar
    35    23    22    1
    36    24    25   ar
    37    25    26   ar
    38    25    40    1
    39    26    34    1
    40    27    28    1
    41    27    26   ar
    42    28    33   ar
    43    29    28   ar
    44    29    30   ar
    45    30    31   ar
    46    31    32   ar
    47    31   169    1
    48    32   170    1
    49    33   171    1
    50    33    32   ar
    51    34    39   ar
    52    34    35   ar
    53    35    36   ar
    54    36    37   ar
    55    36   173    1
    56    37   286    1
    57    38   287    1
    58    38    37   ar
    59    39    38   ar
    60    40    41   ar
    61    41   175    1
    62    41    42   ar
    63    42   176    1
    64    43    42   ar
    65    43   177    1
    66    44    43   ar
    67    45    40   ar
    68    45    44   ar
    69    46    47   ar
    70    46    24    1
    71    47   180    1
    72    48   181    1
    73    48    47   ar
    74    49    48   ar
    75    50    49   ar
    76    50    51   ar
    77    51    46   ar
    78    52    54    1
    79    52    19    1
    80    53   184    1
    81    53    52    1
    82    54   187    1
    83    54   189    1
    84    55   190    1
    85    55    52    1
    86    56   193    1
    87    56    16    1
    88    57    16   am
    89    57    58    1
    90    58    64   ar
    91    58    59   ar
    92    59    61   ar
    93    60   278    2
    94    60    59    1
    95    61    62   ar
    96    61    83    1
    97    62    77    1
    98    63    71    1
    99    63    62   ar
   100    64    63   ar
   101    65    66   ar
   102    65    64    1
   103    66   194    1
   104    67   195    1
   105    67    66   ar
   106    68    67   ar
   107    69    68   ar
   108    69    70   ar
   109    70    65   ar
   110    71    72   ar
   111    72    73   ar
   112    72   197    1
   113    73   198    1
   114    74   199    1
   115    74    73   ar
   116    75    74   ar
   117    76    75   ar
   118    76    71   ar
   119    77    82   ar
   120    78    77   ar
   121    78    79   ar
   122    79    80   ar
   123    80    81   ar
   124    80   204    1
   125    81   205    1
   126    82   206    1
   127    82    81   ar
   128    83    84   ar
   129    83    88   ar
   130    84    85   ar
   131    85   208    1
   132    85    86   ar
   133    86   209    1
   134    87    86   ar
   135    87   292    1
   136    88    87   ar
   137    89    92    1
   138    89    56    1
   139    90    89    1
   140    90   213    1
   141    91   216    1
   142    91    89    1
   143    92   219    1
   144    92   217    1
   145    93   220    1
   146    93    17    1
   147    94    95    1
   148    95    96   ar
   149    95   101   ar
   150    96    98   ar
   151    97   276    2
   152    97    96    1
   153    98   120    1
   154    98    99   ar
   155    99   114    1
   156   100    99   ar
   157   100   108    1
   158   101   100   ar
   159   102   107   ar
   160   102   101    1
   161   103   102   ar
   162   104   105   ar
   163   104   103   ar
   164   105   106   ar
   165   106   223    1
   166   106   107   ar
   167   107   224    1
   168   108   109   ar
   169   109   225    1
   170   109   110   ar
   171   110   226    1
   172   111   110   ar
   173   111   227    1
   174   112   111   ar
   175   113   108   ar
   176   113   112   ar
   177   114   115   ar
   178   114   119   ar
   179   115   116   ar
   180   116   231    1
   181   116   117   ar
   182   117   232    1
   183   118   117   ar
   184   118   233    1
   185   119   118   ar
   186   120   121   ar
   187   120   125   ar
   188   121   122   ar
   189   122   236    1
   190   122   123   ar
   191   123   237    1
   192   124   123   ar
   193   124   294    1
   194   125   124   ar
   195   126   129    1
   196   126    93    1
   197   127   239    1
   198   127   126    1
   199   128   242    1
   200   128   126    1
   201   129   245    1
   202   129   247    1
   203   130   248    1
   204   130    18    1
   205   131   282    2
   206   131   132    1
   207   132   138   ar
   208   133   135   ar
   209   133   132   ar
   210   134    18   am
   211   134   133    1
   212   135   136   ar
   213   136   151    1
   214   136   137   ar
   215   137   145    1
   216   138   137   ar
   217   138   139    1
   218   139   144   ar
   219   139   140   ar
   220   140   141   ar
   221   141   142   ar
   222   141   289    1
   223   142   250    1
   224   143   251    1
   225   143   142   ar
   226   144   143   ar
   227   145   150   ar
   228   146   145   ar
   229   146   147   ar
   230   147   148   ar
   231   148   149   ar
   232   148   255    1
   233   149   256    1
   234   150   257    1
   235   150   149   ar
   236   151   152   ar
   237   152   153   ar
   238   152   258    1
   239   153   259    1
   240   154   260    1
   241   154   153   ar
   242   155   154   ar
   243   156   155   ar
   244   156   151   ar
   245   157   158   ar
   246   157   135    1
   247   158   263    1
   248   159   264    1
   249   159   158   ar
   250   160   159   ar
   251   161   160   ar
   252   161   162   ar
   253   162   157   ar
   254   163   166    1
   255   163   130    1
   256   164   267    1
   257   164   163    1
   258   165   270    1
   259   165   163    1
   260   166   275    1
   261   166   273    1
   262   168    29    1
   263   172    35    1
   264   174    39    1
   265   178    44    1
   266   179    45    1
   267   182    49    1
   268   183    51    1
   269   185    53    1
   270   186    53    1
   271   188    54    1
   272   191    55    1
   273   192    55    1
   274   196    68    1
   275   200    75    1
   276   201    76    1
   277   202    78    1
   278   203    79    1
   279   207    84    1
   280   210    88    1
   281   211    90    1
   282   212    90    1
   283   214    91    1
   284   215    91    1
   285   218    92    1
   286   221   103    1
   287   222   105    1
   288   228   112    1
   289   229   113    1
   290   230   115    1
   291   234   119    1
   292   235   121    1
   293   238   125    1
   294   240   127    1
   295   241   127    1
   296   243   128    1
   297   244   128    1
   298   246   129    1
   299   249   140    1
   300   252   144    1
   301   253   146    1
   302   254   147    1
   303   261   155    1
   304   262   156    1
   305   265   160    1
   306   266   162    1
   307   268   164    1
   308   269   164    1
   309   271   165    1
   310   272   165    1
   311   274   166    1
   312   277    94    2
   313   279    57    2
   314   280    23    2
   315   283   134    2
   316   284    50    1
   317   285    30    1
   318   288   161    1
   319   290    69    1
   320   291    70    1
   321   293   104    1
