@<TRIPOS>MOLECULE
RhRh_SS-diOBn-phthal-cat27_tBuCN_12_ONIOM_sp
 230 245 0 0 0
SMALL
GASTEIGER

@<TRIPOS>ATOM
      1 C           2.2639   -2.9838   -0.6472 C.3     1  UNL1        0.0000
      2 C           1.5372   -0.6192   -3.3622 C.3     1  UNL1        0.0000
      3 C          -2.1220   -1.2195   -2.8919 C.3     1  UNL1        0.0000
      4 C          -1.3762   -3.5672   -0.1604 C.3     1  UNL1        0.0000
      5 O           1.1385   -0.0638   -2.2828 O.3     1  UNL1        0.0000
      6 O           1.2358   -1.7700   -3.7931 O.3     1  UNL1        0.0000
      7 O          -1.6871   -0.5751   -1.8758 O.3     1  UNL1        0.0000
      8 O          -1.6328   -2.2671   -3.4039 O.3     1  UNL1        0.0000
      9 O          -1.0639   -2.4009    0.2549 O.3     1  UNL1        0.0000
     10 O          -1.0103   -4.1259   -1.2356 O.3     1  UNL1        0.0000
     11 O           1.7648   -1.9114   -0.1623 O.3     1  UNL1        0.0000
     12 O           1.8406   -3.6498   -1.6356 O.3     1  UNL1        0.0000
     13 N           3.5057    0.8059   -3.2134 N.am    1  UNL1        0.0000
     14 N          -3.1653    0.8961   -3.4306 N.am    1  UNL1        0.0000
     15 N          -3.3592   -3.3569    1.2374 N.am    1  UNL1        0.0000
     16 N           3.3512   -3.0659    1.5212 N.am    1  UNL1        0.0000
     17 C           3.6602    2.1664   -2.9228 C.2     1  UNL1        0.0000
     18 C           4.1864   -0.0153   -2.3166 C.2     1  UNL1        0.0000
     19 C          -1.9638    1.4800   -3.8620 C.2     1  UNL1        0.0000
     20 C          -3.8325    1.7076   -2.5022 C.2     1  UNL1        0.0000
     21 C          -4.0707   -2.5736    0.3220 C.2     1  UNL1        0.0000
     22 C          -3.5092   -2.9180    2.5552 C.2     1  UNL1        0.0000
     23 C           4.0644   -2.0197    2.1138 C.2     1  UNL1        0.0000
     24 C           2.1684   -3.3540    2.2244 C.2     1  UNL1        0.0000
     25 C           2.4674    0.3393   -4.1494 C.3     1  UNL1        0.0000
     26 C           3.0370   -0.1437   -5.5132 C.3     1  UNL1        0.0000
     27 C           1.8820   -0.4535   -6.4950 C.3     1  UNL1        0.0000
     28 C           3.8865    0.9882   -6.1368 C.3     1  UNL1        0.0000
     29 C           3.9332   -1.3941   -5.3694 C.3     1  UNL1        0.0000
     30 C          -3.4115   -0.5567   -3.4252 C.3     1  UNL1        0.0000
     31 C          -4.0386   -1.0936   -4.7402 C.3     1  UNL1        0.0000
     32 C          -3.0750   -0.9848   -5.9417 C.3     1  UNL1        0.0000
     33 C          -5.3100   -0.2753   -5.0619 C.3     1  UNL1        0.0000
     34 C          -4.4667   -2.5698   -4.5631 C.3     1  UNL1        0.0000
     35 C          -2.2731   -4.2852    0.8764 C.3     1  UNL1        0.0000
     36 C          -2.7720   -5.7212    0.5500 C.3     1  UNL1        0.0000
     37 C          -3.6083   -6.2495    1.7390 C.3     1  UNL1        0.0000
     38 C          -3.6552   -5.7637   -0.7168 C.3     1  UNL1        0.0000
     39 C          -1.5691   -6.6773    0.3663 C.3     1  UNL1        0.0000
     40 C           3.5595   -3.3744    0.0977 C.3     1  UNL1        0.0000
     41 C           4.1652   -4.7835   -0.1546 C.3     1  UNL1        0.0000
     42 C           4.6262   -4.9115   -1.6267 C.3     1  UNL1        0.0000
     43 C           5.4131   -4.9663    0.7398 C.3     1  UNL1        0.0000
     44 C           3.1698   -5.9200    0.1658 C.3     1  UNL1        0.0000
     45 C          -4.5713   -1.8069    2.5788 C.3     1  UNL1        0.0000
     46 C          -4.9706   -1.6026    1.1006 C.3     1  UNL1        0.0000
     47 C          -3.2151    3.1161   -2.5707 C.3     1  UNL1        0.0000
     48 C          -1.8545    2.8674   -3.2249 C.3     1  UNL1        0.0000
     49 C           5.1286    0.8643   -1.4844 C.3     1  UNL1        0.0000
     50 C           4.5653    2.2948   -1.6823 C.3     1  UNL1        0.0000
     51 C           3.5213   -1.8326    3.5391 C.3     1  UNL1        0.0000
     52 C           2.1181   -2.4361    3.4522 C.3     1  UNL1        0.0000
     53 C           0.4592   -2.9938    5.0057 C.3     1  UNL1        0.0000
     54 C           4.5881   -0.0197    4.5367 C.3     1  UNL1        0.0000
     55 C           7.4617    1.0423   -1.2753 C.3     1  UNL1        0.0000
     56 C           4.3436    3.0834    0.5244 C.3     1  UNL1        0.0000
     57 C          -4.0838    4.3929   -0.8176 C.3     1  UNL1        0.0000
     58 C          -0.2032    4.2519   -4.1332 C.3     1  UNL1        0.0000
     59 C          -7.2416   -1.0208    1.1356 C.3     1  UNL1        0.0000
     60 C          -4.2804   -0.3940    4.4304 C.3     1  UNL1        0.0000
     61 C           0.2741   -1.7194    5.7868 C.ar    1  UNL1        0.0000
     62 C           1.0062   -1.5082    6.9670 C.ar    1  UNL1        0.0000
     63 C          -0.6098   -0.7251    5.3379 C.ar    1  UNL1        0.0000
     64 C           0.8624   -0.3155    7.6820 C.ar    1  UNL1        0.0000
     65 C          -0.7472    0.4690    6.0546 C.ar    1  UNL1        0.0000
     66 C          -0.0114    0.6737    7.2242 C.ar    1  UNL1        0.0000
     67 C           4.4806    1.4593    4.7745 C.ar    1  UNL1        0.0000
     68 C           5.4134    2.3477    4.2126 C.ar    1  UNL1        0.0000
     69 C           3.4463    1.9655    5.5787 C.ar    1  UNL1        0.0000
     70 C           5.3164    3.7200    4.4624 C.ar    1  UNL1        0.0000
     71 C           3.3471    3.3391    5.8181 C.ar    1  UNL1        0.0000
     72 C           4.2847    4.2154    5.2649 C.ar    1  UNL1        0.0000
     73 C          -5.5952    0.3222    4.5656 C.ar    1  UNL1        0.0000
     74 C          -5.7536    1.5992    4.0044 C.ar    1  UNL1        0.0000
     75 C          -6.6775   -0.2803    5.2270 C.ar    1  UNL1        0.0000
     76 C          -6.9791    2.2646    4.1022 C.ar    1  UNL1        0.0000
     77 C          -7.9031    0.3870    5.3198 C.ar    1  UNL1        0.0000
     78 C          -8.0540    1.6579    4.7575 C.ar    1  UNL1        0.0000
     79 C          -7.4326   -0.0246    0.0235 C.ar    1  UNL1        0.0000
     80 C          -7.2918    1.3520    0.2680 C.ar    1  UNL1        0.0000
     81 C          -7.8127   -0.4607   -1.2565 C.ar    1  UNL1        0.0000
     82 C          -7.5409    2.2773   -0.7502 C.ar    1  UNL1        0.0000
     83 C          -8.0519    0.4679   -2.2744 C.ar    1  UNL1        0.0000
     84 C          -7.9165    1.8356   -2.0217 C.ar    1  UNL1        0.0000
     85 C          -0.0050    5.3149   -3.0863 C.ar    1  UNL1        0.0000
     86 C           0.7803    5.0647   -1.9497 C.ar    1  UNL1        0.0000
     87 C          -0.6275    6.5658   -3.2317 C.ar    1  UNL1        0.0000
     88 C           0.9425    6.0556   -0.9776 C.ar    1  UNL1        0.0000
     89 C          -0.4571    7.5553   -2.2585 C.ar    1  UNL1        0.0000
     90 C           0.3300    7.3008   -1.1326 C.ar    1  UNL1        0.0000
     91 C          -3.7706    4.9041    0.5591 C.ar    1  UNL1        0.0000
     92 C          -2.6888    5.7796    0.7473 C.ar    1  UNL1        0.0000
     93 C          -4.5335    4.5038    1.6692 C.ar    1  UNL1        0.0000
     94 C          -2.3633    6.2346    2.0279 C.ar    1  UNL1        0.0000
     95 C          -4.2086    4.9669    2.9486 C.ar    1  UNL1        0.0000
     96 C          -3.1220    5.8274    3.1283 C.ar    1  UNL1        0.0000
     97 C           4.0821    4.5300    0.8387 C.ar    1  UNL1        0.0000
     98 C           4.5733    5.5338   -0.0124 C.ar    1  UNL1        0.0000
     99 C           3.3664    4.8972    1.9907 C.ar    1  UNL1        0.0000
    100 C           4.3507    6.8820    0.2854 C.ar    1  UNL1        0.0000
    101 C           3.1480    6.2456    2.2870 C.ar    1  UNL1        0.0000
    102 C           3.6398    7.2378    1.4350 C.ar    1  UNL1        0.0000
    103 C           7.7320   -0.0076   -0.2291 C.ar    1  UNL1        0.0000
    104 C           7.7022    0.3231    1.1362 C.ar    1  UNL1        0.0000
    105 C           8.0333   -1.3243   -0.6129 C.ar    1  UNL1        0.0000
    106 C           7.9717   -0.6513    2.1023 C.ar    1  UNL1        0.0000
    107 C           8.3018   -2.2954    0.3562 C.ar    1  UNL1        0.0000
    108 C           8.2677   -1.9605    1.7127 C.ar    1  UNL1        0.0000
    109 H           1.8484    1.2251   -4.3322 H       1  UNL1        0.0000
    110 H           2.2774   -0.6649   -7.5122 H       1  UNL1        0.0000
    111 H           1.1873    0.4111   -6.5695 H       1  UNL1        0.0000
    112 H           1.3000   -1.3437   -6.1845 H       1  UNL1        0.0000
    113 H           4.2673    0.6917   -7.1383 H       1  UNL1        0.0000
    114 H           4.7663    1.2254   -5.5011 H       1  UNL1        0.0000
    115 H           3.2818    1.9131   -6.2572 H       1  UNL1        0.0000
    116 H           4.8390   -1.1677   -4.7694 H       1  UNL1        0.0000
    117 H           4.2773   -1.7392   -6.3684 H       1  UNL1        0.0000
    118 H           3.3945   -2.2373   -4.8931 H       1  UNL1        0.0000
    119 H          -4.1350   -0.7035   -2.6130 H       1  UNL1        0.0000
    120 H          -2.8721    0.0767   -6.1932 H       1  UNL1        0.0000
    121 H          -3.5261   -1.4543   -6.8426 H       1  UNL1        0.0000
    122 H          -2.1113   -1.4959   -5.7434 H       1  UNL1        0.0000
    123 H          -5.0652    0.7938   -5.2398 H       1  UNL1        0.0000
    124 H          -6.0321   -0.3318   -4.2204 H       1  UNL1        0.0000
    125 H          -5.8108   -0.6634   -5.9753 H       1  UNL1        0.0000
    126 H          -5.1151   -2.6870   -3.6679 H       1  UNL1        0.0000
    127 H          -3.5944   -3.2444   -4.4548 H       1  UNL1        0.0000
    128 H          -5.0394   -2.9212   -5.4487 H       1  UNL1        0.0000
    129 H          -1.6522   -4.3327    1.7800 H       1  UNL1        0.0000
    130 H          -4.5199   -5.6332    1.8931 H       1  UNL1        0.0000
    131 H          -3.0120   -6.2330    2.6770 H       1  UNL1        0.0000
    132 H          -3.9383   -7.2954    1.5574 H       1  UNL1        0.0000
    133 H          -4.5914   -5.1865   -0.5683 H       1  UNL1        0.0000
    134 H          -3.9464   -6.8109   -0.9495 H       1  UNL1        0.0000
    135 H          -3.1266   -5.3593   -1.6030 H       1  UNL1        0.0000
    136 H          -0.8789   -6.6121    1.2351 H       1  UNL1        0.0000
    137 H          -0.9950   -6.4517   -0.5541 H       1  UNL1        0.0000
    138 H          -1.9143   -7.7304    0.2798 H       1  UNL1        0.0000
    139 H           4.2852   -2.6216   -0.2366 H       1  UNL1        0.0000
    140 H           3.7709   -4.9287   -2.3305 H       1  UNL1        0.0000
    141 H           5.1884   -5.8580   -1.7811 H       1  UNL1        0.0000
    142 H           5.2948   -4.0680   -1.9050 H       1  UNL1        0.0000
    143 H           5.1428   -4.9429    1.8173 H       1  UNL1        0.0000
    144 H           6.1497   -4.1585    0.5492 H       1  UNL1        0.0000
    145 H           5.9067   -5.9419    0.5387 H       1  UNL1        0.0000
    146 H           2.2170   -5.8019   -0.3890 H       1  UNL1        0.0000
    147 H           2.9484   -5.9601    1.2519 H       1  UNL1        0.0000
    148 H           3.6036   -6.9041   -0.1153 H       1  UNL1        0.0000
    149 H          -5.4477   -2.1855    3.1235 H       1  UNL1        0.0000
    150 H          -4.7097   -0.5835    0.7836 H       1  UNL1        0.0000
    151 H          -3.8104    3.7355   -3.2581 H       1  UNL1        0.0000
    152 H          -1.1469    2.7537   -2.3884 H       1  UNL1        0.0000
    153 H           5.0647    0.5231   -0.4431 H       1  UNL1        0.0000
    154 H           5.3600    3.0157   -1.9176 H       1  UNL1        0.0000
    155 H           4.1021   -2.4707    4.2232 H       1  UNL1        0.0000
    156 H           1.4477   -1.6041    3.1834 H       1  UNL1        0.0000
    157 H          -0.2195   -3.0450    4.1226 H       1  UNL1        0.0000
    158 H           0.1810   -3.8464    5.6600 H       1  UNL1        0.0000
    159 H           4.7127   -0.5237    5.5213 H       1  UNL1        0.0000
    160 H           5.4828   -0.2425    3.9127 H       1  UNL1        0.0000
    161 H           8.3722    1.1447   -1.9021 H       1  UNL1        0.0000
    162 H           7.2894    2.0430   -0.8196 H       1  UNL1        0.0000
    163 H           3.9653    2.4333    1.3415 H       1  UNL1        0.0000
    164 H           5.4466    2.9261    0.4905 H       1  UNL1        0.0000
    165 H          -4.2906    5.2655   -1.4771 H       1  UNL1        0.0000
    166 H          -4.9878    3.7469   -0.7915 H       1  UNL1        0.0000
    167 H           0.4711    3.3789   -3.9730 H       1  UNL1        0.0000
    168 H           0.0761    4.6743   -5.1213 H       1  UNL1        0.0000
    169 H          -8.2135   -1.5283    1.3096 H       1  UNL1        0.0000
    170 H          -6.9869   -0.5169    2.0958 H       1  UNL1        0.0000
    171 H          -4.2578   -1.3419    5.0175 H       1  UNL1        0.0000
    172 H          -3.4913    0.2539    4.8610 H       1  UNL1        0.0000
    173 H           1.6937   -2.2637    7.3269 H       1  UNL1        0.0000
    174 H          -1.1766   -0.8661    4.4262 H       1  UNL1        0.0000
    175 H           1.4342   -0.1551    8.5868 H       1  UNL1        0.0000
    176 H          -1.4152    1.2422    5.6996 H       1  UNL1        0.0000
    177 H          -0.1153    1.6004    7.7735 H       1  UNL1        0.0000
    178 H           6.2165    1.9809    3.5865 H       1  UNL1        0.0000
    179 H           2.7168    1.2959    6.0156 H       1  UNL1        0.0000
    180 H           6.0359    4.4008    4.0263 H       1  UNL1        0.0000
    181 H           2.5440    3.7237    6.4334 H       1  UNL1        0.0000
    182 H           4.2063    5.2789    5.4496 H       1  UNL1        0.0000
    183 H          -4.9293    2.0708    3.4849 H       1  UNL1        0.0000
    184 H          -6.5770   -1.2675    5.6605 H       1  UNL1        0.0000
    185 H          -7.0978    3.2467    3.6633 H       1  UNL1        0.0000
    186 H          -8.7369   -0.0823    5.8257 H       1  UNL1        0.0000
    187 H          -9.0038    2.1718    4.8285 H       1  UNL1        0.0000
    188 H          -7.0037    1.7105    1.2468 H       1  UNL1        0.0000
    189 H          -7.9331   -1.5172   -1.4616 H       1  UNL1        0.0000
    190 H          -7.4432    3.3369   -0.5532 H       1  UNL1        0.0000
    191 H          -8.3498    0.1273   -3.2575 H       1  UNL1        0.0000
    192 H          -8.1043    2.5529   -2.8101 H       1  UNL1        0.0000
    193 H           1.2528    4.1013   -1.8068 H       1  UNL1        0.0000
    194 H          -1.2436    6.7725   -4.0981 H       1  UNL1        0.0000
    195 H           1.5343    5.8547   -0.0985 H       1  UNL1        0.0000
    196 H          -0.9385    8.5175   -2.3752 H       1  UNL1        0.0000
    197 H           0.4567    8.0637   -0.3754 H       1  UNL1        0.0000
    198 H          -2.0918    6.0967   -0.0974 H       1  UNL1        0.0000
    199 H          -5.3722    3.8299    1.5473 H       1  UNL1        0.0000
    200 H          -1.5205    6.8993    2.1670 H       1  UNL1        0.0000
    201 H          -4.7958    4.6556    3.8025 H       1  UNL1        0.0000
    202 H          -2.8682    6.1786    4.1200 H       1  UNL1        0.0000
    203 H           5.1303    5.2736   -0.9032 H       1  UNL1        0.0000
    204 H           2.9760    4.1434    2.6597 H       1  UNL1        0.0000
    205 H           4.7296    7.6511   -0.3751 H       1  UNL1        0.0000
    206 H           2.5950    6.5204    3.1759 H       1  UNL1        0.0000
    207 H           3.4672    8.2815    1.6634 H       1  UNL1        0.0000
    208 H           7.4725    1.3327    1.4526 H       1  UNL1        0.0000
    209 H           8.0620   -1.5959   -1.6609 H       1  UNL1        0.0000
    210 H           7.9483   -0.3921    3.1527 H       1  UNL1        0.0000
    211 H           8.5354   -3.3085    0.0553 H       1  UNL1        0.0000
    212 H           8.4716   -2.7149    2.4615 H       1  UNL1        0.0000
    213 O          -4.7234    1.3296   -1.7732 O.2     1  UNL1        0.0000
    214 O          -1.1261    0.9416   -4.5525 O.2     1  UNL1        0.0000
    215 O          -2.8814   -3.3353    3.5042 O.2     1  UNL1        0.0000
    216 O          -3.9738   -2.6539   -0.8827 O.2     1  UNL1        0.0000
    217 O           4.0689   -1.2194   -2.2428 O.2     1  UNL1        0.0000
    218 O           3.1304    3.0684   -3.5292 O.2     1  UNL1        0.0000
    219 O           4.9440   -1.3821    1.5732 O.2     1  UNL1        0.0000
    220 O           1.3163   -4.1406    1.8779 O.2     1  UNL1        0.0000
    221 O          -2.9864    3.6816   -1.2880 O.3     1  UNL1        0.0000
    222 O          -1.5425    3.8738   -4.1789 O.3     1  UNL1        0.0000
    223 O           3.4264   -0.4678    3.9174 O.3     1  UNL1        0.0000
    224 O           6.4059    0.6706   -2.1063 O.3     1  UNL1        0.0000
    225 O           3.6772    2.7291   -0.6509 O.3     1  UNL1        0.0000
    226 O           1.7953   -3.1415    4.6412 O.3     1  UNL1        0.0000
    227 O          -6.3068   -1.9947    0.7841 O.3     1  UNL1        0.0000
    228 O          -3.9918   -0.6019    3.0845 O.3     1  UNL1        0.0000
    229 Rh          0.0330   -1.1522   -0.9429 Rh      1  UNL1        0.0000
    230 Rh          0.1114   -3.0408   -2.5985 Rh      1  UNL1        0.0000
@<TRIPOS>BOND
     1     1    11    1
     2     1    40    1
     3     2    25    1
     4     2     5    1
     5     3    30    1
     6     3     7    1
     7     4     9    1
     8     4    35    1
     9     5   229    1
    10     6     2    1
    11     6   230    1
    12     7   229    1
    13     8     3    1
    14     8   230    1
    15    10     4    1
    16    12     1    1
    17    13    17   am
    18    13    18   am
    19    14    30    1
    20    14    20   am
    21    15    22   am
    22    16    23   am
    23    16    24   am
    24    17    50    1
    25    18   217    2
    26    18    49    1
    27    19    14   am
    28    19    48    1
    29    20   213    2
    30    21    46    1
    31    21    15   am
    32    22    45    1
    33    22   215    2
    34    23    51    1
    35    24    52    1
    36    25   109    1
    37    25    13    1
    38    26    29    1
    39    26    25    1
    40    27   112    1
    41    27    26    1
    42    28    26    1
    43    28   114    1
    44    29   118    1
    45    29   116    1
    46    30   119    1
    47    31    34    1
    48    31    30    1
    49    32   122    1
    50    32    31    1
    51    33    31    1
    52    33   124    1
    53    34   127    1
    54    34   126    1
    55    35    15    1
    56    35   129    1
    57    36    35    1
    58    36    37    1
    59    37   130    1
    60    37   131    1
    61    38   133    1
    62    38    36    1
    63    39    36    1
    64    39   136    1
    65    40   139    1
    66    40    16    1
    67    41    40    1
    68    41    44    1
    69    41    43    1
    70    42    41    1
    71    43   143    1
    72    44   147    1
    73    45   228    1
    74    45   149    1
    75    46   150    1
    76    46    45    1
    77    47   151    1
    78    47    20    1
    79    47   221    1
    80    48    47    1
    81    48   152    1
    82    49   153    1
    83    50   154    1
    84    50    49    1
    85    50   225    1
    86    51   223    1
    87    51   155    1
    88    52   156    1
    89    52    51    1
    90    52   226    1
    91    53   158    1
    92    53    61    1
    93    54    67    1
    94    54   159    1
    95    55   162    1
    96    55   103    1
    97    56    97    1
    98    56   163    1
    99    57   166    1
   100    57    91    1
   101    58   167    1
   102    58    85    1
   103    59   169    1
   104    59   170    1
   105    60    73    1
   106    60   172    1
   107    60   171    1
   108    61    62   ar
   109    62   173    1
   110    62    64   ar
   111    63    61   ar
   112    63    65   ar
   113    64   175    1
   114    65    66   ar
   115    66    64   ar
   116    66   177    1
   117    67    69   ar
   118    68    70   ar
   119    68    67   ar
   120    69    71   ar
   121    69   179    1
   122    70    72   ar
   123    71   181    1
   124    72   182    1
   125    72    71   ar
   126    73    75   ar
   127    74    76   ar
   128    74    73   ar
   129    75    77   ar
   130    75   184    1
   131    76    78   ar
   132    77   186    1
   133    78   187    1
   134    78    77   ar
   135    79    80   ar
   136    79    59    1
   137    80   188    1
   138    81    79   ar
   139    82   190    1
   140    82    80   ar
   141    83    84   ar
   142    83    81   ar
   143    84    82   ar
   144    85    86   ar
   145    86   193    1
   146    86    88   ar
   147    87    85   ar
   148    87    89   ar
   149    88   195    1
   150    89    90   ar
   151    90    88   ar
   152    90   197    1
   153    91    92   ar
   154    91    93   ar
   155    92    94   ar
   156    93    95   ar
   157    94   200    1
   158    94    96   ar
   159    95    96   ar
   160    95   201    1
   161    96   202    1
   162    97    99   ar
   163    98   100   ar
   164    98    97   ar
   165    99   101   ar
   166    99   204    1
   167   100   102   ar
   168   101   206    1
   169   102   207    1
   170   102   101   ar
   171   103   104   ar
   172   104   208    1
   173   104   106   ar
   174   105   103   ar
   175   105   107   ar
   176   106   210    1
   177   107   108   ar
   178   108   106   ar
   179   108   212    1
   180   110    27    1
   181   111    27    1
   182   113    28    1
   183   115    28    1
   184   117    29    1
   185   120    32    1
   186   121    32    1
   187   123    33    1
   188   125    33    1
   189   128    34    1
   190   132    37    1
   191   134    38    1
   192   135    38    1
   193   137    39    1
   194   138    39    1
   195   140    42    1
   196   141    42    1
   197   142    42    1
   198   144    43    1
   199   145    43    1
   200   146    44    1
   201   148    44    1
   202   157    53    1
   203   160    54    1
   204   161    55    1
   205   164    56    1
   206   165    57    1
   207   168    58    1
   208   174    63    1
   209   176    65    1
   210   178    68    1
   211   180    70    1
   212   183    74    1
   213   185    76    1
   214   189    81    1
   215   191    83    1
   216   192    84    1
   217   194    87    1
   218   196    89    1
   219   198    92    1
   220   199    93    1
   221   203    98    1
   222   205   100    1
   223   209   105    1
   224   211   107    1
   225   214    19    2
   226   216    21    2
   227   218    17    2
   228   219    23    2
   229   220    24    2
   230   221    57    1
   231   222    58    1
   232   222    48    1
   233   223    54    1
   234   224    49    1
   235   224    55    1
   236   225    56    1
   237   226    53    1
   238   227    46    1
   239   227    59    1
   240   228    60    1
   241   229    11    1
   242   229     9    1
   243   230    12    1
   244   230    10    1
   245   230   229    1
