@<TRIPOS>MOLECULE
RhRh_pFPhMe2-O2C4_20kcal_8_sp
 94 101 0 0 0
SMALL
GASTEIGER

@<TRIPOS>ATOM
      1 Rh          0.1401   -0.4804    0.8213 Rh      1  UNL1        0.0000
      2 Rh          0.5613   -0.1695   -1.5081 Rh      1  UNL1        0.0000
      3 C          -2.0254   -1.3222   -0.9119 C.3     1  UNL1        0.0000
      4 C           1.5197   -2.6802   -0.4518 C.3     1  UNL1        0.0000
      5 C           2.6576    0.8016    0.2386 C.3     1  UNL1        0.0000
      6 C          -0.7951    2.0434   -0.2256 C.3     1  UNL1        0.0000
      7 O           0.9504   -2.3684    0.6440 O.3     1  UNL1        0.0000
      8 O           1.4680   -2.0090   -1.5297 O.3     1  UNL1        0.0000
      9 O          -1.7273   -1.1838    0.3153 O.3     1  UNL1        0.0000
     10 O          -1.2637   -1.0245   -1.8892 O.3     1  UNL1        0.0000
     11 O          -0.6098    1.4258    0.8739 O.3     1  UNL1        0.0000
     12 O          -0.3746    1.6601   -1.3619 O.3     1  UNL1        0.0000
     13 O           2.0022    0.3007    1.2065 O.3     1  UNL1        0.0000
     14 O           2.3605    0.6841   -0.9939 O.3     1  UNL1        0.0000
     15 F          -6.5688   -3.0856    3.2552 F       1  UNL1        0.0000
     16 F          -6.9719    1.2876   -0.0515 F       1  UNL1        0.0000
     17 F           1.7525    6.9681    0.2746 F       1  UNL1        0.0000
     18 F           7.5002   -1.8857    1.0632 F       1  UNL1        0.0000
     19 C           2.4174   -3.9256   -0.4537 C.3     1  UNL1        0.0000
     20 C           3.8084   -3.3836   -0.0660 C.ar    1  UNL1        0.0000
     21 C           4.8963   -3.4175   -0.9451 C.ar    1  UNL1        0.0000
     22 C           6.1443   -2.9136   -0.5747 C.ar    1  UNL1        0.0000
     23 C           6.2967   -2.3713    0.6929 C.ar    1  UNL1        0.0000
     24 C           5.2386   -2.3135    1.5923 C.ar    1  UNL1        0.0000
     25 C           3.9983   -2.8094    1.2009 C.ar    1  UNL1        0.0000
     26 C          -3.4017   -1.8956   -1.2993 C.3     1  UNL1        0.0000
     27 C          -4.2607   -2.1892   -0.0688 C.ar    1  UNL1        0.0000
     28 C          -3.7973   -3.0716    0.9202 C.ar    1  UNL1        0.0000
     29 C          -4.5645   -3.3788    2.0389 C.ar    1  UNL1        0.0000
     30 C          -5.8203   -2.7948    2.1690 C.ar    1  UNL1        0.0000
     31 C          -6.3185   -1.9239    1.2135 C.ar    1  UNL1        0.0000
     32 C          -5.5316   -1.6319    0.0971 C.ar    1  UNL1        0.0000
     33 C          -1.6587    3.3112   -0.1667 C.3     1  UNL1        0.0000
     34 C          -3.1138    2.7966   -0.1447 C.ar    1  UNL1        0.0000
     35 C          -4.0345    3.1193   -1.1476 C.ar    1  UNL1        0.0000
     36 C          -5.3425    2.6289   -1.1161 C.ar    1  UNL1        0.0000
     37 C          -5.7197    1.8053   -0.0667 C.ar    1  UNL1        0.0000
     38 C          -4.8383    1.4633    0.9504 C.ar    1  UNL1        0.0000
     39 C          -3.5412    1.9613    0.9010 C.ar    1  UNL1        0.0000
     40 C           3.8593    1.6945    0.5790 C.3     1  UNL1        0.0000
     41 C           3.2968    3.1308    0.5167 C.ar    1  UNL1        0.0000
     42 C           3.1950    3.9389    1.6548 C.ar    1  UNL1        0.0000
     43 C           2.6762    5.2332    1.5842 C.ar    1  UNL1        0.0000
     44 C           2.2536    5.7175    0.3553 C.ar    1  UNL1        0.0000
     45 C           2.3302    4.9438   -0.7970 C.ar    1  UNL1        0.0000
     46 C           2.8428    3.6530   -0.7053 C.ar    1  UNL1        0.0000
     47 C          -1.3452    4.0930    1.1269 C.3     1  UNL1        0.0000
     48 C          -1.3574    4.2025   -1.3780 C.3     1  UNL1        0.0000
     49 C           4.4080    1.3327    1.9650 C.3     1  UNL1        0.0000
     50 C           4.9746    1.4952   -0.4680 C.3     1  UNL1        0.0000
     51 C           1.9294   -4.9494    0.5891 C.3     1  UNL1        0.0000
     52 C           2.3938   -4.5738   -1.8455 C.3     1  UNL1        0.0000
     53 C          -3.1469   -3.2104   -2.0804 C.3     1  UNL1        0.0000
     54 C          -4.0503   -0.8738   -2.2561 C.3     1  UNL1        0.0000
     55 H           4.7850   -3.8393   -1.9359 H       1  UNL1        0.0000
     56 H           6.9894   -2.9404   -1.2532 H       1  UNL1        0.0000
     57 H           5.3929   -1.8881    2.5773 H       1  UNL1        0.0000
     58 H           3.1631   -2.7332    1.8868 H       1  UNL1        0.0000
     59 H          -2.8108   -3.5115    0.8289 H       1  UNL1        0.0000
     60 H          -4.2049   -4.0551    2.8062 H       1  UNL1        0.0000
     61 H          -7.2967   -1.4750    1.3415 H       1  UNL1        0.0000
     62 H          -5.9313   -0.9410   -0.6316 H       1  UNL1        0.0000
     63 H          -3.7433    3.7548   -1.9743 H       1  UNL1        0.0000
     64 H          -6.0565    2.8707   -1.8953 H       1  UNL1        0.0000
     65 H          -5.1595    0.7983    1.7422 H       1  UNL1        0.0000
     66 H          -2.8404    1.6706    1.6730 H       1  UNL1        0.0000
     67 H           3.5218    3.5689    2.6182 H       1  UNL1        0.0000
     68 H           2.5992    5.8606    2.4650 H       1  UNL1        0.0000
     69 H           1.9926    5.3529   -1.7424 H       1  UNL1        0.0000
     70 H           2.8724    3.0365   -1.5949 H       1  UNL1        0.0000
     71 H          -1.9811    4.9811    1.1749 H       1  UNL1        0.0000
     72 H          -1.5214    3.4885    2.0162 H       1  UNL1        0.0000
     73 H          -0.2989    4.4117    1.1346 H       1  UNL1        0.0000
     74 H          -0.3110    4.5112   -1.3502 H       1  UNL1        0.0000
     75 H          -1.5283    3.6811   -2.3205 H       1  UNL1        0.0000
     76 H          -1.9784    5.1020   -1.3455 H       1  UNL1        0.0000
     77 H           5.2307    2.0033    2.2284 H       1  UNL1        0.0000
     78 H           3.6389    1.3853    2.7361 H       1  UNL1        0.0000
     79 H           4.7928    0.3120    1.9468 H       1  UNL1        0.0000
     80 H           4.6244    1.6964   -1.4798 H       1  UNL1        0.0000
     81 H           5.8076    2.1669   -0.2439 H       1  UNL1        0.0000
     82 H           5.3403    0.4644   -0.4362 H       1  UNL1        0.0000
     83 H           2.6123   -5.8031    0.6057 H       1  UNL1        0.0000
     84 H           1.8804   -4.5217    1.5898 H       1  UNL1        0.0000
     85 H           0.9296   -5.3101    0.3292 H       1  UNL1        0.0000
     86 H           3.0663   -5.4358   -1.8712 H       1  UNL1        0.0000
     87 H           1.3837   -4.9267   -2.0703 H       1  UNL1        0.0000
     88 H           2.6804   -3.8692   -2.6263 H       1  UNL1        0.0000
     89 H          -4.1042   -3.6300   -2.4009 H       1  UNL1        0.0000
     90 H          -2.5281   -3.0162   -2.9590 H       1  UNL1        0.0000
     91 H          -2.6431   -3.9558   -1.4594 H       1  UNL1        0.0000
     92 H          -5.0074   -1.2543   -2.6226 H       1  UNL1        0.0000
     93 H          -4.2204    0.0871   -1.7655 H       1  UNL1        0.0000
     94 H          -3.3933   -0.7090   -3.1105 H       1  UNL1        0.0000
@<TRIPOS>BOND
     1     1    11    1
     2     1    13    1
     3     2    12    1
     4     2    14    1
     5     2     1    1
     6     3     9    1
     7     4     7    1
     8     5    40    1
     9     5    13    1
    10     6    33    1
    11     6    11    1
    12     7     1    1
    13     8     2    1
    14     8     4    1
    15     9     1    1
    16    10     2    1
    17    10     3    1
    18    12     6    1
    19    14     5    1
    20    17    44    1
    21    19     4    1
    22    19    20    1
    23    19    51    1
    24    20    25   ar
    25    21    22   ar
    26    21    20   ar
    27    22    23   ar
    28    23    18    1
    29    23    24   ar
    30    24    57    1
    31    25    24   ar
    32    25    58    1
    33    26     3    1
    34    26    27    1
    35    27    32   ar
    36    27    28   ar
    37    28    29   ar
    38    29    30   ar
    39    29    60    1
    40    30    15    1
    41    31    61    1
    42    31    30   ar
    43    32    31   ar
    44    33    34    1
    45    33    47    1
    46    34    39   ar
    47    35    36   ar
    48    35    34   ar
    49    36    37   ar
    50    37    16    1
    51    37    38   ar
    52    38    65    1
    53    39    38   ar
    54    39    66    1
    55    40    49    1
    56    41    40    1
    57    41    42   ar
    58    42    67    1
    59    43    42   ar
    60    43    68    1
    61    44    43   ar
    62    45    46   ar
    63    45    44   ar
    64    46    41   ar
    65    47    73    1
    66    47    71    1
    67    47    72    1
    68    48    74    1
    69    48    76    1
    70    48    33    1
    71    49    77    1
    72    49    78    1
    73    50    82    1
    74    50    81    1
    75    50    40    1
    76    51    83    1
    77    51    84    1
    78    52    19    1
    79    53    91    1
    80    53    26    1
    81    54    93    1
    82    54    26    1
    83    55    21    1
    84    56    22    1
    85    59    28    1
    86    62    32    1
    87    63    35    1
    88    64    36    1
    89    69    45    1
    90    70    46    1
    91    75    48    1
    92    79    49    1
    93    80    50    1
    94    85    51    1
    95    86    52    1
    96    87    52    1
    97    88    52    1
    98    89    53    1
    99    90    53    1
   100    92    54    1
   101    94    54    1
