@<TRIPOS>MOLECULE
RhRh_EtEtiPr-O2C4_29_sp
 114 117 0 0 0
SMALL
GASTEIGER

@<TRIPOS>ATOM
      1 Rh          0.0014   -0.0047    1.2123 Rh      1  UNL1        0.0000
      2 Rh         -0.0115    0.0626   -1.1657 Rh      1  UNL1        0.0000
      3 C          -1.7447   -1.9760   -0.0195 C.3     1  UNL1        0.0000
      4 C           2.0147   -1.6826   -0.0142 C.3     1  UNL1        0.0000
      5 C           1.7490    2.0127    0.0439 C.3     1  UNL1        0.0000
      6 C          -1.9763    1.7921    0.1094 C.3     1  UNL1        0.0000
      7 O           1.4514   -1.4519    1.1058 O.3     1  UNL1        0.0000
      8 O           1.6358   -1.1867   -1.1250 O.3     1  UNL1        0.0000
      9 O          -1.4500   -1.4591    1.1077 O.3     1  UNL1        0.0000
     10 O          -1.2700   -1.5757   -1.1343 O.3     1  UNL1        0.0000
     11 O           1.4600    1.4580    1.1552 O.3     1  UNL1        0.0000
     12 O           1.2468    1.6773   -1.0784 O.3     1  UNL1        0.0000
     13 O          -1.4504    1.4391    1.2147 O.3     1  UNL1        0.0000
     14 O          -1.6178    1.3553   -1.0348 O.3     1  UNL1        0.0000
     15 C           3.1947   -2.6743    0.0041 C.3     1  UNL1        0.0000
     16 C           2.5241   -4.0727    0.1510 C.3     1  UNL1        0.0000
     17 C           1.5708   -4.4519   -0.9850 C.3     1  UNL1        0.0000
     18 C           4.0347   -2.3549    1.2917 C.3     1  UNL1        0.0000
     19 C           5.2342   -3.2822    1.5321 C.3     1  UNL1        0.0000
     20 C           4.5086   -0.8947    1.3546 C.3     1  UNL1        0.0000
     21 C           3.9906   -2.5569   -1.3232 C.3     1  UNL1        0.0000
     22 C           4.8925   -3.7352   -1.7116 C.3     1  UNL1        0.0000
     23 C          -2.7549   -3.1338   -0.0616 C.3     1  UNL1        0.0000
     24 C          -2.1979   -4.1967   -1.0518 C.3     1  UNL1        0.0000
     25 C          -3.0761   -5.4339   -1.2526 C.3     1  UNL1        0.0000
     26 C          -2.9885   -3.7724    1.3479 C.3     1  UNL1        0.0000
     27 C          -1.7151   -4.3758    1.9625 C.3     1  UNL1        0.0000
     28 C          -3.6991   -2.8744    2.3752 C.3     1  UNL1        0.0000
     29 C          -4.1049   -2.5510   -0.5941 C.3     1  UNL1        0.0000
     30 C          -4.1710   -2.2119   -2.0849 C.3     1  UNL1        0.0000
     31 C           2.7969    3.1328    0.0433 C.3     1  UNL1        0.0000
     32 C           2.9295    3.6609    1.5027 C.3     1  UNL1        0.0000
     33 C           3.9616    4.7699    1.7242 C.3     1  UNL1        0.0000
     34 C           2.3717    4.3014   -0.9147 C.3     1  UNL1        0.0000
     35 C           2.5332    4.0546   -2.4216 C.3     1  UNL1        0.0000
     36 C           0.9496    4.8021   -0.6255 C.3     1  UNL1        0.0000
     37 C           4.1732    2.5093   -0.3699 C.3     1  UNL1        0.0000
     38 C           4.1941    1.4133   -1.4414 C.3     1  UNL1        0.0000
     39 C          -3.1524    2.7731    0.1688 C.3     1  UNL1        0.0000
     40 C          -3.0691    3.7069   -1.0675 C.3     1  UNL1        0.0000
     41 C          -4.1896    4.7432   -1.1745 C.3     1  UNL1        0.0000
     42 C          -3.0957    3.5845    1.4880 C.3     1  UNL1        0.0000
     43 C          -1.9029    4.5302    1.6384 C.3     1  UNL1        0.0000
     44 C          -4.4796    1.9194    0.1569 C.3     1  UNL1        0.0000
     45 C          -4.7554    1.2296   -1.1851 C.3     1  UNL1        0.0000
     46 C          -4.5473    0.8873    1.2946 C.3     1  UNL1        0.0000
     47 H           3.3102   -4.8282    0.2310 H       1  UNL1        0.0000
     48 H           1.9800   -4.0842    1.1014 H       1  UNL1        0.0000
     49 H           2.0890   -4.5345   -1.9443 H       1  UNL1        0.0000
     50 H           0.7765   -3.7128   -1.1115 H       1  UNL1        0.0000
     51 H           1.1015   -5.4189   -0.7788 H       1  UNL1        0.0000
     52 H           3.3391   -2.4998    2.1244 H       1  UNL1        0.0000
     53 H           4.9848   -4.3415    1.4340 H       1  UNL1        0.0000
     54 H           5.6098   -3.1276    2.5489 H       1  UNL1        0.0000
     55 H           6.0593   -3.0612    0.8493 H       1  UNL1        0.0000
     56 H           5.0206   -0.7126    2.3052 H       1  UNL1        0.0000
     57 H           3.6776   -0.1890    1.2922 H       1  UNL1        0.0000
     58 H           5.2200   -0.6654    0.5549 H       1  UNL1        0.0000
     59 H           3.2724   -2.3984   -2.1297 H       1  UNL1        0.0000
     60 H           5.3694   -3.5206   -2.6732 H       1  UNL1        0.0000
     61 H           4.3272   -4.6632   -1.8338 H       1  UNL1        0.0000
     62 H           5.6866   -3.9274   -0.9894 H       1  UNL1        0.0000
     63 H          -2.0274   -3.7082   -2.0122 H       1  UNL1        0.0000
     64 H          -1.2121   -4.5161   -0.7085 H       1  UNL1        0.0000
     65 H          -2.6511   -6.0654   -2.0390 H       1  UNL1        0.0000
     66 H          -4.0945   -5.1734   -1.5561 H       1  UNL1        0.0000
     67 H          -3.1456   -6.0443   -0.3478 H       1  UNL1        0.0000
     68 H          -3.6760   -4.6047    1.1519 H       1  UNL1        0.0000
     69 H          -1.9524   -4.8434    2.9235 H       1  UNL1        0.0000
     70 H          -0.9601   -3.6063    2.1414 H       1  UNL1        0.0000
     71 H          -1.2734   -5.1480    1.3267 H       1  UNL1        0.0000
     72 H          -3.9214   -3.4613    3.2727 H       1  UNL1        0.0000
     73 H          -4.6494   -2.4868    2.0001 H       1  UNL1        0.0000
     74 H          -3.0755   -2.0287    2.6661 H       1  UNL1        0.0000
     75 H          -4.3499   -1.6555   -0.0178 H       1  UNL1        0.0000
     76 H          -5.1250   -1.7266   -2.3114 H       1  UNL1        0.0000
     77 H          -4.0995   -3.1046   -2.7119 H       1  UNL1        0.0000
     78 H          -3.3671   -1.5332   -2.3770 H       1  UNL1        0.0000
     79 H           1.9520    4.0031    1.8550 H       1  UNL1        0.0000
     80 H           3.1825    2.8070    2.1357 H       1  UNL1        0.0000
     81 H           4.0354    4.9946    2.7927 H       1  UNL1        0.0000
     82 H           3.6932    5.7012    1.2173 H       1  UNL1        0.0000
     83 H           4.9594    4.4788    1.3826 H       1  UNL1        0.0000
     84 H           3.0623    5.1165   -0.6692 H       1  UNL1        0.0000
     85 H           2.2332    4.9576   -2.9642 H       1  UNL1        0.0000
     86 H           1.9075    3.2281   -2.7617 H       1  UNL1        0.0000
     87 H           3.5697    3.8457   -2.6953 H       1  UNL1        0.0000
     88 H           0.7285    5.6836   -1.2355 H       1  UNL1        0.0000
     89 H           0.8101    5.0841    0.4202 H       1  UNL1        0.0000
     90 H           0.2108    4.0349   -0.8748 H       1  UNL1        0.0000
     91 H           4.6284    2.0962    0.5373 H       1  UNL1        0.0000
     92 H           3.6186    0.5377   -1.1413 H       1  UNL1        0.0000
     93 H           5.2283    1.0921   -1.6053 H       1  UNL1        0.0000
     94 H           3.7896    1.7455   -2.3971 H       1  UNL1        0.0000
     95 H          -2.1059    4.2256   -1.0413 H       1  UNL1        0.0000
     96 H          -3.0421    3.0947   -1.9699 H       1  UNL1        0.0000
     97 H          -4.2082    5.4197   -0.3149 H       1  UNL1        0.0000
     98 H          -5.1762    4.2764   -1.2507 H       1  UNL1        0.0000
     99 H          -4.0481    5.3557   -2.0702 H       1  UNL1        0.0000
    100 H          -4.0286    4.1541    1.5660 H       1  UNL1        0.0000
    101 H          -1.8934    5.3171    0.8788 H       1  UNL1        0.0000
    102 H          -0.9608    3.9808    1.5722 H       1  UNL1        0.0000
    103 H          -1.9327    5.0193    2.6171 H       1  UNL1        0.0000
    104 H          -5.2827    2.6467    0.3307 H       1  UNL1        0.0000
    105 H          -5.6717    0.6351   -1.1145 H       1  UNL1        0.0000
    106 H          -3.9386    0.5603   -1.4618 H       1  UNL1        0.0000
    107 H          -4.8902    1.9444   -2.0002 H       1  UNL1        0.0000
    108 H          -4.4778    1.3469    2.2825 H       1  UNL1        0.0000
    109 H          -3.7448    0.1487    1.2226 H       1  UNL1        0.0000
    110 H          -5.5008    0.3516    1.2488 H       1  UNL1        0.0000
    111 H           4.5909   -1.6426   -1.2899 H       1  UNL1        0.0000
    112 H           4.8202    3.3359   -0.6840 H       1  UNL1        0.0000
    113 H          -3.0847    2.8887    2.3272 H       1  UNL1        0.0000
    114 H          -4.8869   -3.2816   -0.3558 H       1  UNL1        0.0000
@<TRIPOS>BOND
     1     1    13    1
     2     2    10    1
     3     2     8    1
     4     2    12    1
     5     2    14    1
     6     2     1    1
     7     3     9    1
     8     4    15    1
     9     4     7    1
    10     5    11    1
    11     6    39    1
    12     6    13    1
    13     7     1    1
    14     8     4    1
    15     9     1    1
    16    10     3    1
    17    11     1    1
    18    12     5    1
    19    14     6    1
    20    15    16    1
    21    15    18    1
    22    16    47    1
    23    16    48    1
    24    17    51    1
    25    17    16    1
    26    18    20    1
    27    18    19    1
    28    18    52    1
    29    19    54    1
    30    20    56    1
    31    21   111    1
    32    21    15    1
    33    22    21    1
    34    22    62    1
    35    23     3    1
    36    23    26    1
    37    24    64    1
    38    24    23    1
    39    25    24    1
    40    25    67    1
    41    26    27    1
    42    26    28    1
    43    27    70    1
    44    27    69    1
    45    28    74    1
    46    28    72    1
    47    29   114    1
    48    29    23    1
    49    29    75    1
    50    30    29    1
    51    31     5    1
    52    31    32    1
    53    32    33    1
    54    32    79    1
    55    32    80    1
    56    33    81    1
    57    34    84    1
    58    34    36    1
    59    34    31    1
    60    35    34    1
    61    36    89    1
    62    37    31    1
    63    37    91    1
    64    38    92    1
    65    38    37    1
    66    39    42    1
    67    40    95    1
    68    40    39    1
    69    41    40    1
    70    41    97    1
    71    42   100    1
    72    42    43    1
    73    42   113    1
    74    43   103    1
    75    44    39    1
    76    44   104    1
    77    44    46    1
    78    45   105    1
    79    45    44    1
    80    46   108    1
    81    49    17    1
    82    50    17    1
    83    53    19    1
    84    55    19    1
    85    57    20    1
    86    58    20    1
    87    59    21    1
    88    60    22    1
    89    61    22    1
    90    63    24    1
    91    65    25    1
    92    66    25    1
    93    68    26    1
    94    71    27    1
    95    73    28    1
    96    76    30    1
    97    77    30    1
    98    78    30    1
    99    82    33    1
   100    83    33    1
   101    85    35    1
   102    86    35    1
   103    87    35    1
   104    88    36    1
   105    90    36    1
   106    93    38    1
   107    94    38    1
   108    96    40    1
   109    98    41    1
   110    99    41    1
   111   101    43    1
   112   102    43    1
   113   106    45    1
   114   107    45    1
   115   109    46    1
   116   110    46    1
   117   112    37    1
