@<TRIPOS>MOLECULE
RhRh_S-TCPTTL4_fromcarbene_20kcal_10_sp
 134 145 0 0 0
SMALL
GASTEIGER

@<TRIPOS>ATOM
      1 Rh         -0.6069    0.0003   -1.0982 Rh      1  UNL1        0.0000
      2 Rh         -2.0160   -0.4801    0.7734 Rh      1  UNL1        0.0000
      3 C          -1.0911   -2.8102   -0.6579 C.3     1  UNL1        0.0000
      4 C          -1.4145    2.3140    0.4280 C.3     1  UNL1        0.0000
      5 C           0.8112   -0.4425    1.3699 C.3     1  UNL1        0.0000
      6 C          -3.4283   -0.1506   -1.7214 C.3     1  UNL1        0.0000
      7 O          -0.7006    1.9851   -0.5669 O.3     1  UNL1        0.0000
      8 O          -2.1313    1.5324    1.1315 O.3     1  UNL1        0.0000
      9 O          -2.3178    0.1582   -2.2460 O.3     1  UNL1        0.0000
     10 O          -3.6225   -0.4405   -0.4985 O.3     1  UNL1        0.0000
     11 O          -0.5212   -2.0170   -1.4750 O.3     1  UNL1        0.0000
     12 O          -1.8104   -2.4763    0.3275 O.3     1  UNL1        0.0000
     13 O           1.0065   -0.2584    0.1256 O.3     1  UNL1        0.0000
     14 O          -0.3167   -0.5232    1.9383 O.3     1  UNL1        0.0000
     15 N          -0.1250    4.3882    0.5982 N.am    1  UNL1        0.0000
     16 N          -5.8524   -0.1616   -1.8209 N.am    1  UNL1        0.0000
     17 N           0.5038   -4.6355   -0.4582 N.am    1  UNL1        0.0000
     18 N           3.2317   -0.2658    1.4354 N.am    1  UNL1        0.0000
     19 CL          3.5373    5.0042    3.3521 Cl      1  UNL1        0.0000
     20 CL          5.7473    6.4456    1.6157 Cl      1  UNL1        0.0000
     21 CL          5.1889    7.1271   -1.3904 Cl      1  UNL1        0.0000
     22 CL          2.4558    6.2932   -2.7246 Cl      1  UNL1        0.0000
     23 CL         -9.2197   -3.0507   -0.5356 Cl      1  UNL1        0.0000
     24 CL        -10.8627   -1.5785    1.7233 Cl      1  UNL1        0.0000
     25 CL        -10.0232    1.2894    2.6658 Cl      1  UNL1        0.0000
     26 CL         -7.5324    2.7238    1.3595 Cl      1  UNL1        0.0000
     27 CL          2.9679   -4.5933    3.4365 Cl      1  UNL1        0.0000
     28 CL          5.8785   -5.5394    2.6882 Cl      1  UNL1        0.0000
     29 CL          6.5743   -6.3177   -0.2643 Cl      1  UNL1        0.0000
     30 CL          4.3500   -6.1997   -2.5013 Cl      1  UNL1        0.0000
     31 CL          6.6189   -2.6788   -0.5599 Cl      1  UNL1        0.0000
     32 CL          8.1137   -0.7054   -2.5231 Cl      1  UNL1        0.0000
     33 CL          7.1478    2.2647   -2.8020 Cl      1  UNL1        0.0000
     34 CL          4.6835    3.2929   -1.1338 Cl      1  UNL1        0.0000
     35 C          -1.4287    3.7766    0.8554 C.3     1  UNL1        0.0000
     36 C           0.7974    4.4696    1.6598 C.2     1  UNL1        0.0000
     37 C           2.0347    5.0769    1.0881 C.ar    1  UNL1        0.0000
     38 C           3.2400    5.3958    1.6933 C.ar    1  UNL1        0.0000
     39 C           4.2207    6.0377    0.9092 C.ar    1  UNL1        0.0000
     40 C           3.9724    6.3356   -0.4458 C.ar    1  UNL1        0.0000
     41 C           2.7497    5.9690   -1.0501 C.ar    1  UNL1        0.0000
     42 C           1.7999    5.3374   -0.2606 C.ar    1  UNL1        0.0000
     43 C           0.4240    4.8452   -0.6089 C.2     1  UNL1        0.0000
     44 C          -2.7000    4.5514    0.3523 C.3     1  UNL1        0.0000
     45 C          -2.4424    6.0613    0.4784 C.3     1  UNL1        0.0000
     46 C          -3.0862    4.1852   -1.0895 C.3     1  UNL1        0.0000
     47 C          -3.8637    4.1617    1.2861 C.3     1  UNL1        0.0000
     48 C          -4.6501   -0.3005   -2.6352 C.3     1  UNL1        0.0000
     49 C          -6.7146   -1.2497   -1.6182 C.2     1  UNL1        0.0000
     50 C          -7.6834   -0.8082   -0.5666 C.ar    1  UNL1        0.0000
     51 C          -8.7703   -1.4650   -0.0103 C.ar    1  UNL1        0.0000
     52 C          -9.4984   -0.7982    0.9997 C.ar    1  UNL1        0.0000
     53 C          -9.1215    0.4922    1.4229 C.ar    1  UNL1        0.0000
     54 C          -8.0107    1.1435    0.8424 C.ar    1  UNL1        0.0000
     55 C          -7.3125    0.4728   -0.1498 C.ar    1  UNL1        0.0000
     56 C          -6.1090    0.8917   -0.9360 C.2     1  UNL1        0.0000
     57 C          -4.6681    0.4897   -3.9823 C.3     1  UNL1        0.0000
     58 C          -4.3344    1.9802   -3.8161 C.3     1  UNL1        0.0000
     59 C          -3.6538   -0.1664   -4.9401 C.3     1  UNL1        0.0000
     60 C          -6.0750    0.3397   -4.5905 C.3     1  UNL1        0.0000
     61 C          -0.8366   -4.2938   -0.9447 C.3     1  UNL1        0.0000
     62 C           1.0280   -4.3830    0.8186 C.2     1  UNL1        0.0000
     63 C           2.4229   -4.9250    0.7943 C.ar    1  UNL1        0.0000
     64 C           3.3617   -5.0196    1.8079 C.ar    1  UNL1        0.0000
     65 C           4.6568   -5.4622    1.4677 C.ar    1  UNL1        0.0000
     66 C           4.9672   -5.8137    0.1404 C.ar    1  UNL1        0.0000
     67 C           3.9836   -5.7535   -0.8703 C.ar    1  UNL1        0.0000
     68 C           2.7186   -5.3107   -0.5152 C.ar    1  UNL1        0.0000
     69 C           1.4821   -5.1424   -1.3391 C.2     1  UNL1        0.0000
     70 C          -1.9522   -5.2956   -0.5387 C.3     1  UNL1        0.0000
     71 C          -2.1436   -5.4319    0.9799 C.3     1  UNL1        0.0000
     72 C          -3.2608   -4.8147   -1.1961 C.3     1  UNL1        0.0000
     73 C          -1.5723   -6.6696   -1.1214 C.3     1  UNL1        0.0000
     74 C           2.0631   -0.6756    2.2154 C.3     1  UNL1        0.0000
     75 C           4.1441   -1.2268    0.9887 C.2     1  UNL1        0.0000
     76 C           5.0409   -0.5385    0.0192 C.ar    1  UNL1        0.0000
     77 C           6.1120   -1.0300   -0.7111 C.ar    1  UNL1        0.0000
     78 C           6.7696   -0.1431   -1.5910 C.ar    1  UNL1        0.0000
     79 C           6.3344    1.1911   -1.7168 C.ar    1  UNL1        0.0000
     80 C           5.2338    1.6639   -0.9676 C.ar    1  UNL1        0.0000
     81 C           4.6040    0.7818   -0.1039 C.ar    1  UNL1        0.0000
     82 C           3.4166    0.9721    0.7975 C.2     1  UNL1        0.0000
     83 C           2.0456   -0.1772    3.6959 C.3     1  UNL1        0.0000
     84 C           1.1070   -1.0929    4.5072 C.3     1  UNL1        0.0000
     85 C           3.4730   -0.3342    4.2518 C.3     1  UNL1        0.0000
     86 C           1.5909    1.2826    3.8267 C.3     1  UNL1        0.0000
     87 H          -1.4809    3.7579    1.9459 H       1  UNL1        0.0000
     88 H          -3.3763    6.6020    0.2981 H       1  UNL1        0.0000
     89 H          -1.7120    6.4113   -0.2542 H       1  UNL1        0.0000
     90 H          -2.0900    6.3268    1.4811 H       1  UNL1        0.0000
     91 H          -2.2804    4.3979   -1.7894 H       1  UNL1        0.0000
     92 H          -3.9725    4.7577   -1.3809 H       1  UNL1        0.0000
     93 H          -3.3572    3.1310   -1.1635 H       1  UNL1        0.0000
     94 H          -4.7744    4.6756    0.9650 H       1  UNL1        0.0000
     95 H          -3.6551    4.4489    2.3227 H       1  UNL1        0.0000
     96 H          -4.0611    3.0893    1.2538 H       1  UNL1        0.0000
     97 H          -4.6534   -1.3645   -2.9062 H       1  UNL1        0.0000
     98 H          -4.3726    2.4691   -4.7949 H       1  UNL1        0.0000
     99 H          -3.3319    2.1199   -3.4082 H       1  UNL1        0.0000
    100 H          -5.0423    2.4820   -3.1550 H       1  UNL1        0.0000
    101 H          -3.6941    0.3331   -5.9128 H       1  UNL1        0.0000
    102 H          -3.8897   -1.2248   -5.1000 H       1  UNL1        0.0000
    103 H          -2.6357   -0.0915   -4.5575 H       1  UNL1        0.0000
    104 H          -6.0844    0.7654   -5.5979 H       1  UNL1        0.0000
    105 H          -6.8289    0.8669   -3.9994 H       1  UNL1        0.0000
    106 H          -6.3720   -0.7117   -4.6634 H       1  UNL1        0.0000
    107 H          -0.7325   -4.3530   -2.0313 H       1  UNL1        0.0000
    108 H          -2.9581   -6.1372    1.1749 H       1  UNL1        0.0000
    109 H          -2.3859   -4.4760    1.4424 H       1  UNL1        0.0000
    110 H          -1.2456   -5.8245    1.4635 H       1  UNL1        0.0000
    111 H          -4.0539   -5.5484   -1.0263 H       1  UNL1        0.0000
    112 H          -3.1433   -4.7015   -2.2800 H       1  UNL1        0.0000
    113 H          -3.5947   -3.8604   -0.7818 H       1  UNL1        0.0000
    114 H          -2.3688   -7.3910   -0.9171 H       1  UNL1        0.0000
    115 H          -0.6537   -7.0546   -0.6682 H       1  UNL1        0.0000
    116 H          -1.4201   -6.6236   -2.2039 H       1  UNL1        0.0000
    117 H           2.1513   -1.7676    2.2627 H       1  UNL1        0.0000
    118 H           1.1694   -0.8249    5.5665 H       1  UNL1        0.0000
    119 H           1.3925   -2.1447    4.4043 H       1  UNL1        0.0000
    120 H           0.0714   -0.9909    4.1844 H       1  UNL1        0.0000
    121 H           3.4736   -0.1093    5.3222 H       1  UNL1        0.0000
    122 H           4.1737    0.3522    3.7683 H       1  UNL1        0.0000
    123 H           3.8446   -1.3557    4.1187 H       1  UNL1        0.0000
    124 H           1.5646    1.5639    4.8842 H       1  UNL1        0.0000
    125 H           0.5876    1.4292    3.4213 H       1  UNL1        0.0000
    126 H           2.2607    1.9704    3.3115 H       1  UNL1        0.0000
    127 O           4.1583   -2.3885    1.3374 O.2     1  UNL1        0.0000
    128 O           1.3001   -5.3795   -2.5117 O.2     1  UNL1        0.0000
    129 O           2.7463    1.9677    0.9585 O.2     1  UNL1        0.0000
    130 O           0.4659   -3.7950    1.7179 O.2     1  UNL1        0.0000
    131 O          -5.4673    1.9151   -0.8484 O.2     1  UNL1        0.0000
    132 O          -6.6367   -2.3128   -2.1946 O.2     1  UNL1        0.0000
    133 O           0.5700    4.1338    2.8013 O.2     1  UNL1        0.0000
    134 O          -0.1089    4.8667   -1.6947 O.2     1  UNL1        0.0000
@<TRIPOS>BOND
     1     1     7    1
     2     1    13    1
     3     1     2    1
     4     2     8    1
     5     2    14    1
     6     3    61    1
     7     3    12    1
     8     4    35    1
     9     4     8    1
    10     5    14    1
    11     5    74    1
    12     6    48    1
    13     6    10    1
    14     7     4    1
    15     9     6    1
    16     9     1    1
    17    10     2    1
    18    11     1    1
    19    11     3    1
    20    12     2    1
    21    13     5    1
    22    15    35    1
    23    15    36   am
    24    16    49   am
    25    16    56   am
    26    17    62   am
    27    18    74    1
    28    21    40    1
    29    22    41    1
    30    23    51    1
    31    29    66    1
    32    30    67    1
    33    32    78    1
    34    33    79    1
    35    34    80    1
    36    35    87    1
    37    36   133    2
    38    37    36    1
    39    37    38   ar
    40    38    19    1
    41    39    20    1
    42    39    38   ar
    43    40    39   ar
    44    41    40   ar
    45    41    42   ar
    46    42    37   ar
    47    43    42    1
    48    43    15   am
    49    44    45    1
    50    44    35    1
    51    44    47    1
    52    45    90    1
    53    46    44    1
    54    47    95    1
    55    48    97    1
    56    48    16    1
    57    49    50    1
    58    50    55   ar
    59    50    51   ar
    60    51    52   ar
    61    52    53   ar
    62    52    24    1
    63    53    25    1
    64    54    26    1
    65    54    53   ar
    66    55    54   ar
    67    56   131    2
    68    56    55    1
    69    57    58    1
    70    57    48    1
    71    58    99    1
    72    58   100    1
    73    59   103    1
    74    59    57    1
    75    60   105    1
    76    60    57    1
    77    61   107    1
    78    61    70    1
    79    61    17    1
    80    62   130    2
    81    63    62    1
    82    63    64   ar
    83    64    27    1
    84    65    64   ar
    85    65    28    1
    86    66    65   ar
    87    67    68   ar
    88    67    66   ar
    89    68    63   ar
    90    69    68    1
    91    69    17   am
    92    70    71    1
    93    71   108    1
    94    71   109    1
    95    71   110    1
    96    72   111    1
    97    72   113    1
    98    72    70    1
    99    73   114    1
   100    73   115    1
   101    73    70    1
   102    74   117    1
   103    74    83    1
   104    75   127    2
   105    75    18   am
   106    76    75    1
   107    77    31    1
   108    77    76   ar
   109    78    77   ar
   110    79    78   ar
   111    79    80   ar
   112    80    81   ar
   113    81    76   ar
   114    81    82    1
   115    82   129    2
   116    82    18   am
   117    83    86    1
   118    83    85    1
   119    83    84    1
   120    84   118    1
   121    85   121    1
   122    86   124    1
   123    88    45    1
   124    89    45    1
   125    91    46    1
   126    92    46    1
   127    93    46    1
   128    94    47    1
   129    96    47    1
   130    98    58    1
   131   101    59    1
   132   102    59    1
   133   104    60    1
   134   106    60    1
   135   112    72    1
   136   116    73    1
   137   119    84    1
   138   120    84    1
   139   122    85    1
   140   123    85    1
   141   125    86    1
   142   126    86    1
   143   128    69    2
   144   132    49    2
   145   134    43    2
