@<TRIPOS>MOLECULE
RhRh_cis-Cy-fused-Hback-S-PTV4_1_sp
 146 157 0 0 0
SMALL
GASTEIGER

@<TRIPOS>ATOM
      1 Rh          0.0028   -0.0808    0.2028 Rh      1  UNL1        0.0000
      2 Rh          0.0717    0.0474   -2.1854 Rh      1  UNL1        0.0000
      3 C          -2.5384    0.4581   -1.0322 C.3     1  UNL1        0.0000
      4 C           2.5841   -0.6391   -0.9654 C.3     1  UNL1        0.0000
      5 C          -0.5131   -2.5756   -1.1561 C.3     1  UNL1        0.0000
      6 C           0.7421    2.4940   -0.8074 C.3     1  UNL1        0.0000
      7 O           0.4455    1.9073    0.2818 O.3     1  UNL1        0.0000
      8 O           0.5592    2.0441   -1.9762 O.3     1  UNL1        0.0000
      9 O          -2.0072    0.2725    0.1099 O.3     1  UNL1        0.0000
     10 O          -1.9402    0.4507   -2.1477 O.3     1  UNL1        0.0000
     11 O          -0.3792   -2.0783    0.0092 O.3     1  UNL1        0.0000
     12 O          -0.3580   -1.9639   -2.2520 O.3     1  UNL1        0.0000
     13 O           2.0161   -0.4683    0.1642 O.3     1  UNL1        0.0000
     14 O           2.0632   -0.4481   -2.1000 O.3     1  UNL1        0.0000
     15 N           2.5623    3.5597    0.3043 N.am    1  UNL1        0.0000
     16 N          -4.3756    1.5864    0.0527 N.am    1  UNL1        0.0000
     17 N          -1.9519   -4.2209   -0.1697 N.am    1  UNL1        0.0000
     18 N           4.0394   -2.1614    0.1698 N.am    1  UNL1        0.0000
     19 C           2.6157    4.0866    1.5966 C.2     1  UNL1        0.0000
     20 C           3.5281    2.5906    0.0687 C.2     1  UNL1        0.0000
     21 C          -5.3185    1.3110    1.0395 C.2     1  UNL1        0.0000
     22 C          -3.6894    2.7850    0.2756 C.2     1  UNL1        0.0000
     23 C          -3.0721   -3.3897   -0.1054 C.2     1  UNL1        0.0000
     24 C          -1.7380   -4.9053    1.0358 C.2     1  UNL1        0.0000
     25 C           3.1911   -3.2705    0.1645 C.2     1  UNL1        0.0000
     26 C           4.6295   -1.9422    1.4122 C.2     1  UNL1        0.0000
     27 C           1.4571    3.8387   -0.6165 C.3     1  UNL1        0.0000
     28 C           1.8810    4.5388   -1.9183 C.3     1  UNL1        0.0000
     29 C           0.6362    5.0754   -2.6370 C.3     1  UNL1        0.0000
     30 C           2.8743    5.6689   -1.6261 C.3     1  UNL1        0.0000
     31 C          -4.0544    0.6315   -1.0053 C.3     1  UNL1        0.0000
     32 C          -4.7742    0.9355   -2.3345 C.3     1  UNL1        0.0000
     33 C          -4.6679   -0.2571   -3.2962 C.3     1  UNL1        0.0000
     34 C          -4.3503    2.2482   -3.0024 C.3     1  UNL1        0.0000
     35 C          -0.8702   -4.0624   -1.1488 C.3     1  UNL1        0.0000
     36 C          -1.1206   -4.7596   -2.4984 C.3     1  UNL1        0.0000
     37 C          -2.3016   -4.2098   -3.3059 C.3     1  UNL1        0.0000
     38 C           0.1719   -4.7833   -3.3291 C.3     1  UNL1        0.0000
     39 C           4.0244   -1.1461   -0.8809 C.3     1  UNL1        0.0000
     40 C           4.6355   -1.6102   -2.2170 C.3     1  UNL1        0.0000
     41 C           4.9536   -0.3919   -3.0947 C.3     1  UNL1        0.0000
     42 C           5.9001   -2.4410   -1.9715 C.3     1  UNL1        0.0000
     43 C           4.3473   -2.9586    3.7513 C.3     1  UNL1        0.0000
     44 C           4.4063   -3.2026    2.2411 C.3     1  UNL1        0.0000
     45 C           3.1651   -3.8403    1.5737 C.3     1  UNL1        0.0000
     46 C           1.8185   -3.3912    2.2025 C.3     1  UNL1        0.0000
     47 C           1.8630   -3.3636    3.7302 C.3     1  UNL1        0.0000
     48 C           2.9840   -2.4397    4.2165 C.3     1  UNL1        0.0000
     49 C          -4.7182   -2.6725    1.7321 C.3     1  UNL1        0.0000
     50 C          -2.0642   -3.3618    2.9119 C.3     1  UNL1        0.0000
     51 C          -3.0401   -2.3977    3.5902 C.3     1  UNL1        0.0000
     52 C          -3.8893   -1.6717    2.5415 C.3     1  UNL1        0.0000
     53 C          -2.7826   -4.4177    2.0272 C.3     1  UNL1        0.0000
     54 C          -3.8708   -3.7940    1.1261 C.3     1  UNL1        0.0000
     55 C          -7.3317    3.7205    2.0803 C.3     1  UNL1        0.0000
     56 C          -6.4576    2.7331    2.8592 C.3     1  UNL1        0.0000
     57 C          -5.3743    4.5430    0.7350 C.3     1  UNL1        0.0000
     58 C          -6.5207    4.9522    1.6625 C.3     1  UNL1        0.0000
     59 C          -5.1658    2.3744    2.1219 C.3     1  UNL1        0.0000
     60 C          -4.4208    3.5139    1.3928 C.3     1  UNL1        0.0000
     61 C           5.5621    5.0481    1.5068 C.3     1  UNL1        0.0000
     62 C           4.8304    4.4901    2.7343 C.3     1  UNL1        0.0000
     63 C           5.8445    2.5170    1.0770 C.3     1  UNL1        0.0000
     64 C           6.2272    3.9400    0.6400 C.3     1  UNL1        0.0000
     65 C           4.3387    2.3843    1.3365 C.3     1  UNL1        0.0000
     66 C           3.7854    3.4353    2.3288 C.3     1  UNL1        0.0000
     67 H           0.7855    4.4905   -0.0468 H       1  UNL1        0.0000
     68 H           0.9161    5.5269   -3.5936 H       1  UNL1        0.0000
     69 H           0.1439    5.8476   -2.0339 H       1  UNL1        0.0000
     70 H          -0.0867    4.2815   -2.8345 H       1  UNL1        0.0000
     71 H           3.8186    5.2852   -1.2312 H       1  UNL1        0.0000
     72 H           2.4644    6.3770   -0.8968 H       1  UNL1        0.0000
     73 H           3.0970    6.2213   -2.5438 H       1  UNL1        0.0000
     74 H          -4.4261   -0.3327   -0.6447 H       1  UNL1        0.0000
     75 H          -3.6494   -0.3645   -3.6738 H       1  UNL1        0.0000
     76 H          -5.3387   -0.1089   -4.1481 H       1  UNL1        0.0000
     77 H          -4.9412   -1.1935   -2.8011 H       1  UNL1        0.0000
     78 H          -3.2950    2.2210   -3.2805 H       1  UNL1        0.0000
     79 H          -4.5013    3.1098   -2.3479 H       1  UNL1        0.0000
     80 H          -4.9440    2.4072   -3.9084 H       1  UNL1        0.0000
     81 H          -0.0062   -4.5498   -0.6840 H       1  UNL1        0.0000
     82 H          -2.4018   -4.7779   -4.2365 H       1  UNL1        0.0000
     83 H          -2.1489   -3.1585   -3.5565 H       1  UNL1        0.0000
     84 H          -3.2438   -4.2893   -2.7600 H       1  UNL1        0.0000
     85 H           1.0218   -5.1390   -2.7389 H       1  UNL1        0.0000
     86 H           0.4160   -3.7847   -3.6968 H       1  UNL1        0.0000
     87 H           0.0484   -5.4470   -4.1902 H       1  UNL1        0.0000
     88 H           4.6131   -0.3142   -0.4826 H       1  UNL1        0.0000
     89 H           5.7145    0.2371   -2.6187 H       1  UNL1        0.0000
     90 H           4.0698    0.2228   -3.2646 H       1  UNL1        0.0000
     91 H           5.3437   -0.7197   -4.0633 H       1  UNL1        0.0000
     92 H           5.6821   -3.3737   -1.4449 H       1  UNL1        0.0000
     93 H           6.6317   -1.8789   -1.3789 H       1  UNL1        0.0000
     94 H           6.3698   -2.6977   -2.9255 H       1  UNL1        0.0000
     95 H           2.3664    3.7916   -2.5523 H       1  UNL1        0.0000
     96 H          -5.8289    1.0277   -2.0410 H       1  UNL1        0.0000
     97 H          -1.3540   -5.7961   -2.2189 H       1  UNL1        0.0000
     98 H           3.8939   -2.2352   -2.7233 H       1  UNL1        0.0000
     99 H           5.2788   -3.8339    2.0224 H       1  UNL1        0.0000
    100 H           2.9762   -2.3564    5.3086 H       1  UNL1        0.0000
    101 H           5.1456   -2.2583    4.0163 H       1  UNL1        0.0000
    102 H           1.5815   -2.3840    1.8430 H       1  UNL1        0.0000
    103 H           1.0305   -4.0504    1.8342 H       1  UNL1        0.0000
    104 H           2.0213   -4.3766    4.1250 H       1  UNL1        0.0000
    105 H           0.8928   -3.0251    4.1106 H       1  UNL1        0.0000
    106 H           2.8187   -1.4289    3.8190 H       1  UNL1        0.0000
    107 H           4.5612   -3.9040    4.2640 H       1  UNL1        0.0000
    108 H           3.2159   -4.9314    1.5482 H       1  UNL1        0.0000
    109 H          -3.2358   -1.1023    1.8687 H       1  UNL1        0.0000
    110 H          -5.4678   -3.1297    2.3894 H       1  UNL1        0.0000
    111 H          -1.4387   -3.8898    3.6375 H       1  UNL1        0.0000
    112 H          -1.3877   -2.7777    2.2760 H       1  UNL1        0.0000
    113 H          -2.4735   -1.6790    4.1937 H       1  UNL1        0.0000
    114 H          -3.6938   -2.9465    4.2823 H       1  UNL1        0.0000
    115 H          -4.5650   -0.9523    3.0143 H       1  UNL1        0.0000
    116 H          -5.2647   -2.1599    0.9366 H       1  UNL1        0.0000
    117 H          -3.1551   -5.2386    2.6439 H       1  UNL1        0.0000
    118 H          -4.5382   -4.5968    0.7825 H       1  UNL1        0.0000
    119 H          -6.1928    3.1784    3.8256 H       1  UNL1        0.0000
    120 H          -7.0022    1.8070    3.0678 H       1  UNL1        0.0000
    121 H          -7.1605    5.6800    1.1521 H       1  UNL1        0.0000
    122 H          -8.1919    4.0120    2.6920 H       1  UNL1        0.0000
    123 H          -5.8088    4.0974   -0.1699 H       1  UNL1        0.0000
    124 H          -4.7868    5.4051    0.4068 H       1  UNL1        0.0000
    125 H          -6.1216    5.4519    2.5559 H       1  UNL1        0.0000
    126 H          -7.7337    3.2303    1.1834 H       1  UNL1        0.0000
    127 H          -4.4682    1.9160    2.8373 H       1  UNL1        0.0000
    128 H          -3.7041    4.0273    2.0376 H       1  UNL1        0.0000
    129 H           5.5445    4.0300    3.4260 H       1  UNL1        0.0000
    130 H           4.3262    5.2941    3.2786 H       1  UNL1        0.0000
    131 H           5.9391    4.0742   -0.4090 H       1  UNL1        0.0000
    132 H           6.3099    5.7780    1.8316 H       1  UNL1        0.0000
    133 H           6.1405    1.7905    0.3158 H       1  UNL1        0.0000
    134 H           6.3730    2.2385    1.9943 H       1  UNL1        0.0000
    135 H           7.3170    4.0376    0.6681 H       1  UNL1        0.0000
    136 H           4.8406    5.6092    0.9016 H       1  UNL1        0.0000
    137 H           4.1276    1.3622    1.6688 H       1  UNL1        0.0000
    138 H           3.3739    2.9660    3.2278 H       1  UNL1        0.0000
    139 O          -3.3317   -2.5161   -0.9110 O.2     1  UNL1        0.0000
    140 O          -0.8003   -5.6487    1.2421 O.2     1  UNL1        0.0000
    141 O          -6.0661    0.3522    1.0355 O.2     1  UNL1        0.0000
    142 O          -2.7381    3.1665   -0.3746 O.2     1  UNL1        0.0000
    143 O           3.6663    2.0128   -0.9960 O.2     1  UNL1        0.0000
    144 O           1.8587    4.9350    2.0203 O.2     1  UNL1        0.0000
    145 O           2.5246   -3.6100   -0.7958 O.2     1  UNL1        0.0000
    146 O           5.2328   -0.9339    1.7268 O.2     1  UNL1        0.0000
@<TRIPOS>BOND
     1     1     7    1
     2     2    10    1
     3     2    14    1
     4     2     8    1
     5     2     1    1
     6     3    31    1
     7     3     9    1
     8     4    39    1
     9     4    13    1
    10     5    35    1
    11     5    11    1
    12     6    27    1
    13     6     7    1
    14     8     6    1
    15     9     1    1
    16    10     3    1
    17    11     1    1
    18    12     2    1
    19    12     5    1
    20    13     1    1
    21    14     4    1
    22    15    19   am
    23    16    22   am
    24    16    21   am
    25    17    23   am
    26    17    24   am
    27    18    26   am
    28    19   144    2
    29    19    66    1
    30    20    15   am
    31    20    65    1
    32    21    59    1
    33    22    60    1
    34    23    54    1
    35    24   140    2
    36    24    53    1
    37    25    18   am
    38    25    45    1
    39    26   146    2
    40    26    44    1
    41    27    67    1
    42    27    15    1
    43    28    30    1
    44    28    27    1
    45    29    69    1
    46    29    28    1
    47    30    71    1
    48    30    72    1
    49    31    74    1
    50    31    16    1
    51    32    96    1
    52    32    31    1
    53    33    77    1
    54    33    32    1
    55    34    79    1
    56    34    32    1
    57    35    81    1
    58    35    17    1
    59    36    97    1
    60    36    35    1
    61    37    84    1
    62    37    36    1
    63    38    85    1
    64    38    36    1
    65    39    88    1
    66    39    18    1
    67    40    42    1
    68    40    39    1
    69    41    89    1
    70    41    40    1
    71    42    92    1
    72    42    93    1
    73    43   101    1
    74    43    48    1
    75    43   107    1
    76    44    99    1
    77    44    43    1
    78    45   108    1
    79    45    46    1
    80    45    44    1
    81    46    47    1
    82    47   105    1
    83    47   104    1
    84    47    48    1
    85    48   100    1
    86    49   110    1
    87    49    52    1
    88    50    51    1
    89    50   111    1
    90    51   113    1
    91    51   114    1
    92    52   115    1
    93    52    51    1
    94    53   117    1
    95    53    50    1
    96    54   118    1
    97    54    49    1
    98    54    53    1
    99    55   122    1
   100    55    56    1
   101    56   120    1
   102    56   119    1
   103    57    60    1
   104    57    58    1
   105    58    55    1
   106    58   125    1
   107    59   127    1
   108    59    56    1
   109    60   128    1
   110    60    59    1
   111    61   132    1
   112    61    62    1
   113    62   130    1
   114    62   129    1
   115    63    65    1
   116    63   134    1
   117    64   135    1
   118    64    63    1
   119    64    61    1
   120    65   137    1
   121    65    66    1
   122    66    62    1
   123    66   138    1
   124    68    29    1
   125    70    29    1
   126    73    30    1
   127    75    33    1
   128    76    33    1
   129    78    34    1
   130    80    34    1
   131    82    37    1
   132    83    37    1
   133    86    38    1
   134    87    38    1
   135    90    41    1
   136    91    41    1
   137    94    42    1
   138    95    28    1
   139    98    40    1
   140   102    46    1
   141   103    46    1
   142   106    48    1
   143   109    52    1
   144   112    50    1
   145   116    49    1
   146   121    58    1
   147   123    57    1
   148   124    57    1
   149   126    55    1
   150   131    64    1
   151   133    63    1
   152   136    61    1
   153   139    23    2
   154   141    21    2
   155   142    22    2
   156   143    20    2
   157   145    25    2
