@<TRIPOS>MOLECULE
RhRh_tri-pFPh-O2C4_9_sp
 150 165 0 0 0
SMALL
GASTEIGER

@<TRIPOS>ATOM
      1 Rh          0.0391    0.1178   -1.2292 Rh      1  UNL1        0.0000
      2 Rh          0.0189    0.1066    1.1581 Rh      1  UNL1        0.0000
      3 C          -1.8129    1.9926   -0.0570 C.3     1  UNL1        0.0000
      4 C          -1.8553   -1.7408   -0.0230 C.3     1  UNL1        0.0000
      5 C           1.8411   -1.8108   -0.0460 C.3     1  UNL1        0.0000
      6 C           1.9817    1.8720   -0.0011 C.3     1  UNL1        0.0000
      7 O           1.5006    1.5718   -1.1386 O.3     1  UNL1        0.0000
      8 O           1.4941    1.5215    1.1177 O.3     1  UNL1        0.0000
      9 O           1.5352   -1.2938   -1.1672 O.3     1  UNL1        0.0000
     10 O           1.4468   -1.3813    1.0812 O.3     1  UNL1        0.0000
     11 O          -1.4177   -1.3571   -1.1511 O.3     1  UNL1        0.0000
     12 O          -1.4176   -1.3381    1.1017 O.3     1  UNL1        0.0000
     13 O          -1.4235    1.5393   -1.1807 O.3     1  UNL1        0.0000
     14 O          -1.4236    1.5668    1.0727 O.3     1  UNL1        0.0000
     15 F           6.9287   -2.2019   -3.7932 F       1  UNL1        0.0000
     16 F           4.7845   -4.0901    5.1061 F       1  UNL1        0.0000
     17 F          -0.7451   -7.2727   -1.7924 F       1  UNL1        0.0000
     18 F           7.3888    0.6455    3.2976 F       1  UNL1        0.0000
     19 F           0.5686    7.4044    2.0067 F       1  UNL1        0.0000
     20 F           6.1549    3.1868   -4.7650 F       1  UNL1        0.0000
     21 F          -7.9489    0.9194   -1.3051 F       1  UNL1        0.0000
     22 F          -1.6398    6.9335   -4.1369 F       1  UNL1        0.0000
     23 F          -2.4487    5.5853    5.0119 F       1  UNL1        0.0000
     24 F          -3.7640   -5.3734   -4.9292 F       1  UNL1        0.0000
     25 F          -1.7450   -6.4803    4.1406 F       1  UNL1        0.0000
     26 F          -7.8155   -0.0668    1.5302 F       1  UNL1        0.0000
     27 C           3.2262    2.7834    0.0759 C.3     1  UNL1        0.0000
     28 C           4.2830    2.1831    1.0315 C.ar    1  UNL1        0.0000
     29 C           4.2342    0.8728    1.5222 C.ar    1  UNL1        0.0000
     30 C           5.2791    0.3427    2.2818 C.ar    1  UNL1        0.0000
     31 C           6.3742    1.1449    2.5628 C.ar    1  UNL1        0.0000
     32 C           6.4532    2.4559    2.1055 C.ar    1  UNL1        0.0000
     33 C           5.4098    2.9602    1.3359 C.ar    1  UNL1        0.0000
     34 C           3.9281    2.9299   -1.2856 C.ar    1  UNL1        0.0000
     35 C           4.5067    4.1408   -1.6802 C.ar    1  UNL1        0.0000
     36 C           5.2579    4.2383   -2.8523 C.ar    1  UNL1        0.0000
     37 C           5.4333    3.1029   -3.6292 C.ar    1  UNL1        0.0000
     38 C           4.8873    1.8781   -3.2619 C.ar    1  UNL1        0.0000
     39 C           4.1436    1.8007   -2.0889 C.ar    1  UNL1        0.0000
     40 C           2.6136    4.0982    0.6025 C.ar    1  UNL1        0.0000
     41 C           1.8944    4.9229   -0.2731 C.ar    1  UNL1        0.0000
     42 C           1.2103    6.0445    0.1888 C.ar    1  UNL1        0.0000
     43 C           1.2406    6.3240    1.5478 C.ar    1  UNL1        0.0000
     44 C           1.9251    5.5203    2.4490 C.ar    1  UNL1        0.0000
     45 C           2.6078    4.4043    1.9677 C.ar    1  UNL1        0.0000
     46 C           2.7250   -3.0895   -0.0918 C.3     1  UNL1        0.0000
     47 C           3.3049   -3.3653    1.3081 C.ar    1  UNL1        0.0000
     48 C           2.4385   -3.5673    2.3978 C.ar    1  UNL1        0.0000
     49 C           2.9270   -3.8119    3.6754 C.ar    1  UNL1        0.0000
     50 C           4.3045   -3.8568    3.8689 C.ar    1  UNL1        0.0000
     51 C           5.1911   -3.6790    2.8186 C.ar    1  UNL1        0.0000
     52 C           4.6810   -3.4384    1.5396 C.ar    1  UNL1        0.0000
     53 C           3.8369   -2.8606   -1.1291 C.ar    1  UNL1        0.0000
     54 C           4.1830   -3.8310   -2.0714 C.ar    1  UNL1        0.0000
     55 C           5.2270   -3.6174   -2.9737 C.ar    1  UNL1        0.0000
     56 C           5.9258   -2.4203   -2.9192 C.ar    1  UNL1        0.0000
     57 C           5.6202   -1.4375   -1.9837 C.ar    1  UNL1        0.0000
     58 C           4.5753   -1.6695   -1.0958 C.ar    1  UNL1        0.0000
     59 C           1.7817   -4.2360   -0.5505 C.ar    1  UNL1        0.0000
     60 C           0.9171   -4.0573   -1.6438 C.ar    1  UNL1        0.0000
     61 C           0.0722   -5.0744   -2.0748 C.ar    1  UNL1        0.0000
     62 C           0.1005   -6.2927   -1.4093 C.ar    1  UNL1        0.0000
     63 C           0.9749   -6.5265   -0.3582 C.ar    1  UNL1        0.0000
     64 C           1.8161   -5.4947    0.0621 C.ar    1  UNL1        0.0000
     65 C          -3.0274   -2.7563    0.0529 C.3     1  UNL1        0.0000
     66 C          -3.1974   -3.4845   -1.2910 C.ar    1  UNL1        0.0000
     67 C          -3.1618   -4.8775   -1.3874 C.ar    1  UNL1        0.0000
     68 C          -3.3523   -5.5269   -2.6098 C.ar    1  UNL1        0.0000
     69 C          -3.5821   -4.7612   -3.7414 C.ar    1  UNL1        0.0000
     70 C          -3.6390   -3.3711   -3.6842 C.ar    1  UNL1        0.0000
     71 C          -3.4530   -2.7443   -2.4576 C.ar    1  UNL1        0.0000
     72 C          -2.6961   -3.7446    1.1897 C.ar    1  UNL1        0.0000
     73 C          -1.4128   -4.3057    1.2643 C.ar    1  UNL1        0.0000
     74 C          -1.0831   -5.2252    2.2539 C.ar    1  UNL1        0.0000
     75 C          -2.0582   -5.5910    3.1755 C.ar    1  UNL1        0.0000
     76 C          -3.3412   -5.0680    3.1244 C.ar    1  UNL1        0.0000
     77 C          -3.6523   -4.1426    2.1257 C.ar    1  UNL1        0.0000
     78 C          -4.3133   -1.9590    0.4020 C.ar    1  UNL1        0.0000
     79 C          -5.5501   -2.3677   -0.1142 C.ar    1  UNL1        0.0000
     80 C          -6.7373   -1.7433    0.2663 C.ar    1  UNL1        0.0000
     81 C          -6.6782   -0.6996    1.1776 C.ar    1  UNL1        0.0000
     82 C          -5.4739   -0.2723    1.7175 C.ar    1  UNL1        0.0000
     83 C          -4.2973   -0.9053    1.3286 C.ar    1  UNL1        0.0000
     84 C          -2.8575    3.1380   -0.0909 C.3     1  UNL1        0.0000
     85 C          -2.8049    3.8496    1.2742 C.ar    1  UNL1        0.0000
     86 C          -2.2043    5.1014    1.4270 C.ar    1  UNL1        0.0000
     87 C          -2.0758    5.6961    2.6839 C.ar    1  UNL1        0.0000
     88 C          -2.5648    5.0222    3.7912 C.ar    1  UNL1        0.0000
     89 C          -3.1740    3.7759    3.6807 C.ar    1  UNL1        0.0000
     90 C          -3.2814    3.1966    2.4222 C.ar    1  UNL1        0.0000
     91 C          -2.5201    4.1152   -1.2362 C.ar    1  UNL1        0.0000
     92 C          -1.2014    4.3254   -1.6582 C.ar    1  UNL1        0.0000
     93 C          -0.8965    5.2695   -2.6364 C.ar    1  UNL1        0.0000
     94 C          -1.9272    6.0185   -3.1888 C.ar    1  UNL1        0.0000
     95 C          -3.2452    5.8458   -2.7887 C.ar    1  UNL1        0.0000
     96 C          -3.5309    4.8915   -1.8140 C.ar    1  UNL1        0.0000
     97 C          -4.2381    2.4914   -0.3729 C.ar    1  UNL1        0.0000
     98 C          -5.4023    3.0023    0.2150 C.ar    1  UNL1        0.0000
     99 C          -6.6594    2.4886   -0.1026 C.ar    1  UNL1        0.0000
    100 C          -6.7432    1.4525   -1.0208 C.ar    1  UNL1        0.0000
    101 C          -5.6142    0.9298   -1.6348 C.ar    1  UNL1        0.0000
    102 C          -4.3681    1.4564   -1.3107 C.ar    1  UNL1        0.0000
    103 H           3.3727    0.2450    1.3468 H       1  UNL1        0.0000
    104 H           5.2391   -0.6763    2.6503 H       1  UNL1        0.0000
    105 H           7.3232    3.0571    2.3438 H       1  UNL1        0.0000
    106 H           5.4775    3.9745    0.9590 H       1  UNL1        0.0000
    107 H           4.3750    5.0275   -1.0718 H       1  UNL1        0.0000
    108 H           5.7039    5.1766   -3.1615 H       1  UNL1        0.0000
    109 H           5.0494    1.0049   -3.8835 H       1  UNL1        0.0000
    110 H           3.7245    0.8447   -1.8070 H       1  UNL1        0.0000
    111 H           1.8676    4.6831   -1.3297 H       1  UNL1        0.0000
    112 H           0.6484    6.6809   -0.4843 H       1  UNL1        0.0000
    113 H           1.9109    5.7634    3.5051 H       1  UNL1        0.0000
    114 H           3.1285    3.7586    2.6638 H       1  UNL1        0.0000
    115 H           1.3674   -3.5313    2.2490 H       1  UNL1        0.0000
    116 H           2.2594   -3.9655    4.5157 H       1  UNL1        0.0000
    117 H           6.2587   -3.7334    2.9988 H       1  UNL1        0.0000
    118 H           5.3769   -3.3067    0.7218 H       1  UNL1        0.0000
    119 H           5.4968   -4.3636   -3.7123 H       1  UNL1        0.0000
    120 H           6.1856   -0.5135   -1.9602 H       1  UNL1        0.0000
    121 H           4.3506   -0.9130   -0.3532 H       1  UNL1        0.0000
    122 H           0.8963   -3.1098   -2.1619 H       1  UNL1        0.0000
    123 H          -0.6135   -4.9222   -2.8984 H       1  UNL1        0.0000
    124 H           2.4971   -5.6779    0.8831 H       1  UNL1        0.0000
    125 H          -2.9745   -5.4778   -0.5073 H       1  UNL1        0.0000
    126 H          -3.3001   -6.6061   -2.6850 H       1  UNL1        0.0000
    127 H          -3.8337   -2.8043   -4.5877 H       1  UNL1        0.0000
    128 H          -3.5116   -1.6648   -2.4018 H       1  UNL1        0.0000
    129 H          -0.6570   -4.0289    0.5391 H       1  UNL1        0.0000
    130 H          -0.0920   -5.6581    2.3111 H       1  UNL1        0.0000
    131 H          -4.0781   -5.3781    3.8563 H       1  UNL1        0.0000
    132 H          -4.6519   -3.7286    2.0877 H       1  UNL1        0.0000
    133 H          -5.5940   -3.1880   -0.8192 H       1  UNL1        0.0000
    134 H          -7.6936   -2.0441   -0.1449 H       1  UNL1        0.0000
    135 H          -5.4665    0.5526    2.4199 H       1  UNL1        0.0000
    136 H          -3.3619   -0.5773    1.7598 H       1  UNL1        0.0000
    137 H          -1.8159    5.6256    0.5641 H       1  UNL1        0.0000
    138 H          -1.5851    6.6540    2.8012 H       1  UNL1        0.0000
    139 H          -3.7333    2.2170    2.3274 H       1  UNL1        0.0000
    140 H          -0.3923    3.7499   -1.2306 H       1  UNL1        0.0000
    141 H           0.1218    5.4235   -2.9762 H       1  UNL1        0.0000
    142 H          -4.0273    6.4457   -3.2397 H       1  UNL1        0.0000
    143 H          -4.5598    4.7507   -1.5063 H       1  UNL1        0.0000
    144 H          -5.3322    3.8107    0.9322 H       1  UNL1        0.0000
    145 H          -7.5609    2.8665    0.3648 H       1  UNL1        0.0000
    146 H          -3.4885    1.0584   -1.7988 H       1  UNL1        0.0000
    147 H           3.6349   -4.7641   -2.1126 H       1  UNL1        0.0000
    148 H          -3.5429    3.2768    4.5697 H       1  UNL1        0.0000
    149 H          -5.7158    0.1112   -2.3373 H       1  UNL1        0.0000
    150 H           0.9864   -7.4958    0.1270 H       1  UNL1        0.0000
@<TRIPOS>BOND
     1     1    13    1
     2     1     9    1
     3     1    11    1
     4     1     7    1
     5     1     2    1
     6     3    14    1
     7     4    65    1
     8     4    12    1
     9     5    10    1
    10     6    27    1
    11     6     8    1
    12     7     6    1
    13     8     2    1
    14     9     5    1
    15    10     2    1
    16    11     4    1
    17    12     2    1
    18    13     3    1
    19    14     2    1
    20    15    56    1
    21    17    62    1
    22    20    37    1
    23    21   100    1
    24    22    94    1
    25    24    69    1
    26    27    40    1
    27    27    28    1
    28    28    33   ar
    29    28    29   ar
    30    29    30   ar
    31    30    31   ar
    32    30   104    1
    33    31    18    1
    34    32   105    1
    35    32    31   ar
    36    33    32   ar
    37    34    27    1
    38    35    34   ar
    39    35   107    1
    40    36    35   ar
    41    37    38   ar
    42    37    36   ar
    43    38    39   ar
    44    39   110    1
    45    39    34   ar
    46    40    45   ar
    47    41    42   ar
    48    41    40   ar
    49    42    43   ar
    50    43    19    1
    51    43    44   ar
    52    44   113    1
    53    45    44   ar
    54    45   114    1
    55    46     5    1
    56    46    47    1
    57    47    52   ar
    58    47    48   ar
    59    48    49   ar
    60    49    50   ar
    61    49   116    1
    62    50    16    1
    63    51   117    1
    64    51    50   ar
    65    52    51   ar
    66    53    58   ar
    67    53    46    1
    68    54    53   ar
    69    55    56   ar
    70    55    54   ar
    71    56    57   ar
    72    57   120    1
    73    57    58   ar
    74    58   121    1
    75    59    46    1
    76    59    64   ar
    77    60    59   ar
    78    61    60   ar
    79    61    62   ar
    80    62    63   ar
    81    63    64   ar
    82    63   150    1
    83    64   124    1
    84    65    78    1
    85    65    72    1
    86    66    65    1
    87    67    66   ar
    88    67   125    1
    89    68    67   ar
    90    69    70   ar
    91    69    68   ar
    92    70    71   ar
    93    71   128    1
    94    71    66   ar
    95    72    73   ar
    96    72    77   ar
    97    73    74   ar
    98    74   130    1
    99    74    75   ar
   100    75    25    1
   101    76    75   ar
   102    76   131    1
   103    77    76   ar
   104    78    83   ar
   105    79    80   ar
   106    79    78   ar
   107    80    81   ar
   108    81    26    1
   109    81    82   ar
   110    82   135    1
   111    83    82   ar
   112    83   136    1
   113    84     3    1
   114    84    85    1
   115    85    86   ar
   116    85    90   ar
   117    86    87   ar
   118    87   138    1
   119    87    88   ar
   120    88    23    1
   121    89    88   ar
   122    89   148    1
   123    90    89   ar
   124    91    84    1
   125    92    91   ar
   126    92   140    1
   127    93    92   ar
   128    94    95   ar
   129    94    93   ar
   130    95    96   ar
   131    96   143    1
   132    96    91   ar
   133    97    84    1
   134    97    98   ar
   135    98   144    1
   136    99    98   ar
   137    99   145    1
   138   100    99   ar
   139   101   102   ar
   140   101   100   ar
   141   102    97   ar
   142   103    29    1
   143   106    33    1
   144   108    36    1
   145   109    38    1
   146   111    41    1
   147   112    42    1
   148   115    48    1
   149   118    52    1
   150   119    55    1
   151   122    60    1
   152   123    61    1
   153   126    68    1
   154   127    70    1
   155   129    73    1
   156   132    77    1
   157   133    79    1
   158   134    80    1
   159   137    86    1
   160   139    90    1
   161   141    93    1
   162   142    95    1
   163   146   102    1
   164   147    54    1
   165   149   101    1
