@<TRIPOS>MOLECULE
RhRh_S-PTAD_7_sp
 182 205 0 0 0
SMALL
GASTEIGER

@<TRIPOS>ATOM
      1 Rh          0.1028    0.2406   -1.2681 Rh      1  UNL1        0.0000
      2 O           1.2769    1.9295   -1.1672 O.3     1  UNL1        0.0000
      3 O          -1.0229   -1.4757   -1.2407 O.3     1  UNL1        0.0000
      4 O           1.2341    1.9147    1.0888 O.3     1  UNL1        0.0000
      5 O          -1.0987   -1.4761    1.0146 O.3     1  UNL1        0.0000
      6 O           1.8075   -0.8995   -1.1617 O.3     1  UNL1        0.0000
      7 O          -1.6493    1.3133   -1.2481 O.3     1  UNL1        0.0000
      8 O          -1.6988    1.3423    1.0080 O.3     1  UNL1        0.0000
      9 O           1.7227   -0.9378    1.0941 O.3     1  UNL1        0.0000
     10 C          -2.2041    1.5639   -0.1408 C.3     1  UNL1        0.0000
     11 C           2.2268   -1.2667   -0.0292 C.3     1  UNL1        0.0000
     12 C           1.6533    2.3422   -0.0350 C.3     1  UNL1        0.0000
     13 C          -1.3805   -1.9583   -0.1302 C.3     1  UNL1        0.0000
     14 Rh          0.0359    0.2349    1.1164 Rh      1  UNL1        0.0000
     15 C           3.4774   -2.1626    0.1269 C.3     1  UNL1        0.0000
     16 N           3.1556   -3.2277    1.0833 N.am    1  UNL1        0.0000
     17 C           3.8933   -3.3931    2.2739 C.2     1  UNL1        0.0000
     18 C           1.9299   -3.9204    1.1406 C.2     1  UNL1        0.0000
     19 O           4.9262   -2.8108    2.5444 O.2     1  UNL1        0.0000
     20 C           3.1342   -4.3808    3.0910 C.ar    1  UNL1        0.0000
     21 O           1.0516   -3.8693    0.3007 O.2     1  UNL1        0.0000
     22 C           1.9463   -4.6792    2.4207 C.ar    1  UNL1        0.0000
     23 C           3.4282   -4.9376    4.3272 C.ar    1  UNL1        0.0000
     24 C           0.9934   -5.5300    2.9637 C.ar    1  UNL1        0.0000
     25 C           2.4829   -5.8131    4.8788 C.ar    1  UNL1        0.0000
     26 C           1.2844   -6.0992    4.2114 C.ar    1  UNL1        0.0000
     27 C           2.6875    3.4918    0.1080 C.3     1  UNL1        0.0000
     28 N           3.6515    3.1112    1.1461 N.am    1  UNL1        0.0000
     29 C           3.8506    3.9097    2.2955 C.2     1  UNL1        0.0000
     30 C           4.2215    1.8352    1.3045 C.2     1  UNL1        0.0000
     31 O           3.3820    5.0172    2.4623 O.2     1  UNL1        0.0000
     32 C           4.7108    3.1042    3.2065 C.ar    1  UNL1        0.0000
     33 O           4.1347    0.9195    0.5087 O.2     1  UNL1        0.0000
     34 C           4.9165    1.8542    2.6200 C.ar    1  UNL1        0.0000
     35 C           5.2392    3.4172    4.4505 C.ar    1  UNL1        0.0000
     36 C           5.6438    0.8578    3.2567 C.ar    1  UNL1        0.0000
     37 C           5.9884    2.4253    5.0980 C.ar    1  UNL1        0.0000
     38 C           6.1825    1.1665    4.5135 C.ar    1  UNL1        0.0000
     39 C          -3.6542    2.0977   -0.0618 C.3     1  UNL1        0.0000
     40 N          -3.7032    3.1919    0.9101 N.am    1  UNL1        0.0000
     41 C          -2.7444    4.2200    1.0255 C.2     1  UNL1        0.0000
     42 C          -4.5495    3.1462    2.0349 C.2     1  UNL1        0.0000
     43 O          -1.8170    4.4096    0.2654 O.2     1  UNL1        0.0000
     44 C          -3.1050    4.9706    2.2621 C.ar    1  UNL1        0.0000
     45 O          -5.3895    2.2933    2.2514 O.2     1  UNL1        0.0000
     46 C          -4.1881    4.3297    2.8651 C.ar    1  UNL1        0.0000
     47 C          -2.5286    6.1030    2.8187 C.ar    1  UNL1        0.0000
     48 C          -4.7413    4.7974    4.0485 C.ar    1  UNL1        0.0000
     49 C          -3.0820    6.5862    4.0121 C.ar    1  UNL1        0.0000
     50 C          -4.1711    5.9444    4.6167 C.ar    1  UNL1        0.0000
     51 C          -2.1797   -3.2808   -0.0430 C.3     1  UNL1        0.0000
     52 N          -3.2007   -3.1280    0.9974 N.am    1  UNL1        0.0000
     53 C          -3.9777   -1.9705    1.1925 C.2     1  UNL1        0.0000
     54 C          -3.2460   -3.9718    2.1261 C.2     1  UNL1        0.0000
     55 O          -4.0368   -1.0288    0.4259 O.2     1  UNL1        0.0000
     56 C          -4.6602   -2.1471    2.5012 C.ar    1  UNL1        0.0000
     57 O          -2.5793   -4.9777    2.2762 O.2     1  UNL1        0.0000
     58 C          -4.2383   -3.3580    3.0539 C.ar    1  UNL1        0.0000
     59 C          -5.5485   -1.3085    3.1599 C.ar    1  UNL1        0.0000
     60 C          -4.7040   -3.7907    4.2870 C.ar    1  UNL1        0.0000
     61 C          -6.0257   -1.7408    4.4052 C.ar    1  UNL1        0.0000
     62 C          -5.6152   -2.9622    4.9565 C.ar    1  UNL1        0.0000
     63 H          -1.4624   -3.9982    0.3747 H       1  UNL1        0.0000
     64 H          -4.1989    1.2768    0.4205 H       1  UNL1        0.0000
     65 H           2.1322    4.3244    0.5593 H       1  UNL1        0.0000
     66 H           4.1958   -1.5248    0.6538 H       1  UNL1        0.0000
     67 C           3.7044    4.0854   -4.1518 C.3     1  UNL1        0.0000
     68 H           2.9793    3.2965   -4.4501 H       1  UNL1        0.0000
     69 H           4.1684    4.4784   -5.0830 H       1  UNL1        0.0000
     70 C           4.7912    3.4835   -3.2360 C.3     1  UNL1        0.0000
     71 H           5.3244    2.6727   -3.7788 H       1  UNL1        0.0000
     72 C           2.9719    5.2231   -3.4086 C.3     1  UNL1        0.0000
     73 H           2.1959    5.6600   -4.0743 H       1  UNL1        0.0000
     74 C           2.3013    4.6576   -2.1392 C.3     1  UNL1        0.0000
     75 H           1.5382    3.9197   -2.4555 H       1  UNL1        0.0000
     76 H           1.7593    5.4747   -1.6130 H       1  UNL1        0.0000
     77 C           4.1365    2.9040   -1.9627 C.3     1  UNL1        0.0000
     78 H           4.9369    2.4744   -1.3249 H       1  UNL1        0.0000
     79 H           3.4640    2.0720   -2.2549 H       1  UNL1        0.0000
     80 C           3.3668    4.0204   -1.1908 C.3     1  UNL1        0.0000
     81 C           4.3928    5.1399   -0.8229 C.3     1  UNL1        0.0000
     82 H           3.8851    5.9617   -0.2705 H       1  UNL1        0.0000
     83 H           5.1890    4.7394   -0.1576 H       1  UNL1        0.0000
     84 C           5.7987    4.5833   -2.8402 C.3     1  UNL1        0.0000
     85 H           6.2945    4.9895   -3.7491 H       1  UNL1        0.0000
     86 H           6.5950    4.1553   -2.1922 H       1  UNL1        0.0000
     87 C           3.9813    6.3190   -3.0121 C.3     1  UNL1        0.0000
     88 H           4.4544    6.7477   -3.9228 H       1  UNL1        0.0000
     89 H           3.4570    7.1486   -2.4886 H       1  UNL1        0.0000
     90 C           5.0599    5.7129   -2.0926 C.3     1  UNL1        0.0000
     91 H           5.7870    6.5033   -1.8050 H       1  UNL1        0.0000
     92 C          -4.5386    1.1313   -2.2640 C.3     1  UNL1        0.0000
     93 H          -5.0906    0.3505   -1.6956 H       1  UNL1        0.0000
     94 H          -3.5567    0.6961   -2.5342 H       1  UNL1        0.0000
     95 C          -4.3849    2.4239   -1.3979 C.3     1  UNL1        0.0000
     96 C          -5.2988    1.4388   -3.5703 C.3     1  UNL1        0.0000
     97 H          -5.3848    0.5101   -4.1758 H       1  UNL1        0.0000
     98 C          -6.7090    1.9621   -3.2322 C.3     1  UNL1        0.0000
     99 H          -7.2756    1.1910   -2.6650 H       1  UNL1        0.0000
    100 H          -7.2733    2.1666   -4.1686 H       1  UNL1        0.0000
    101 C          -5.8229    2.9505   -1.0891 C.3     1  UNL1        0.0000
    102 H          -5.7782    3.8831   -0.4849 H       1  UNL1        0.0000
    103 H          -6.3888    2.1993   -0.4941 H       1  UNL1        0.0000
    104 C          -6.5898    3.2514   -2.3954 C.3     1  UNL1        0.0000
    105 H          -7.6067    3.6280   -2.1500 H       1  UNL1        0.0000
    106 C          -5.8271    4.3218   -3.2036 C.3     1  UNL1        0.0000
    107 H          -6.3793    4.5564   -4.1401 H       1  UNL1        0.0000
    108 H          -5.7564    5.2637   -2.6162 H       1  UNL1        0.0000
    109 C          -3.6453    3.5134   -2.2318 C.3     1  UNL1        0.0000
    110 H          -2.6133    3.1977   -2.4870 H       1  UNL1        0.0000
    111 H          -3.5687    4.4574   -1.6519 H       1  UNL1        0.0000
    112 C          -4.5264    2.5069   -4.3737 C.3     1  UNL1        0.0000
    113 H          -3.5116    2.1303   -4.6300 H       1  UNL1        0.0000
    114 H          -5.0537    2.7160   -5.3303 H       1  UNL1        0.0000
    115 C          -4.4139    3.8017   -3.5407 C.3     1  UNL1        0.0000
    116 H          -3.8680    4.5721   -4.1277 H       1  UNL1        0.0000
    117 C           5.1444   -4.9172   -2.8984 C.3     1  UNL1        0.0000
    118 H           4.7953   -5.8002   -2.3191 H       1  UNL1        0.0000
    119 H           5.6639   -5.2999   -3.8043 H       1  UNL1        0.0000
    120 C           6.1193   -4.0783   -2.0459 C.3     1  UNL1        0.0000
    121 H           6.9853   -4.7081   -1.7470 H       1  UNL1        0.0000
    122 C           3.9397   -4.0452   -3.3102 C.3     1  UNL1        0.0000
    123 H           3.2411   -4.6498   -3.9288 H       1  UNL1        0.0000
    124 C           3.2066   -3.5495   -2.0441 C.3     1  UNL1        0.0000
    125 H           2.8526   -4.4334   -1.4726 H       1  UNL1        0.0000
    126 H           2.3092   -2.9762   -2.3540 H       1  UNL1        0.0000
    127 C           5.3912   -3.5702   -0.7822 C.3     1  UNL1        0.0000
    128 H           6.1036   -2.9894   -0.1548 H       1  UNL1        0.0000
    129 H           5.0679   -4.4501   -0.1837 H       1  UNL1        0.0000
    130 C           4.1636   -2.6849   -1.1677 C.3     1  UNL1        0.0000
    131 C           4.6992   -1.4884   -2.0186 C.3     1  UNL1        0.0000
    132 H           3.8823   -0.8125   -2.3400 H       1  UNL1        0.0000
    133 H           5.4050   -0.8742   -1.4163 H       1  UNL1        0.0000
    134 C           6.6204   -2.8757   -2.8704 C.3     1  UNL1        0.0000
    135 H           7.1594   -3.2327   -3.7754 H       1  UNL1        0.0000
    136 H           7.3401   -2.2762   -2.2705 H       1  UNL1        0.0000
    137 C           4.4356   -2.8353   -4.1309 C.3     1  UNL1        0.0000
    138 H           4.9388   -3.1870   -5.0583 H       1  UNL1        0.0000
    139 H           3.5720   -2.2064   -4.4405 H       1  UNL1        0.0000
    140 C           5.4195   -2.0011   -3.2827 C.3     1  UNL1        0.0000
    141 H           5.7810   -1.1355   -3.8797 H       1  UNL1        0.0000
    142 C          -1.5650   -4.2949   -2.3125 C.3     1  UNL1        0.0000
    143 H          -0.8996   -5.0245   -1.7991 H       1  UNL1        0.0000
    144 H          -0.9329   -3.4297   -2.5927 H       1  UNL1        0.0000
    145 C          -2.7384   -3.8780   -1.3681 C.3     1  UNL1        0.0000
    146 C          -2.1103   -4.9259   -3.6104 C.3     1  UNL1        0.0000
    147 H          -1.2612   -5.2033   -4.2725 H       1  UNL1        0.0000
    148 C          -2.9234   -6.1895   -3.2651 C.3     1  UNL1        0.0000
    149 H          -2.2728   -6.9337   -2.7551 H       1  UNL1        0.0000
    150 H          -3.3029   -6.6638   -4.1968 H       1  UNL1        0.0000
    151 C          -3.5624   -5.1669   -1.0517 C.3     1  UNL1        0.0000
    152 H          -4.4251   -4.9294   -0.3912 H       1  UNL1        0.0000
    153 H          -2.9291   -5.9062   -0.5126 H       1  UNL1        0.0000
    154 C          -4.1030   -5.8050   -2.3502 C.3     1  UNL1        0.0000
    155 H          -4.6885   -6.7163   -2.0996 H       1  UNL1        0.0000
    156 C          -5.0129   -4.7947   -3.0800 C.3     1  UNL1        0.0000
    157 H          -5.4188   -5.2508   -4.0097 H       1  UNL1        0.0000
    158 H          -5.8799   -4.5289   -2.4359 H       1  UNL1        0.0000
    159 C          -3.6750   -2.8852   -2.1231 C.3     1  UNL1        0.0000
    160 H          -3.1477   -1.9436   -2.3790 H       1  UNL1        0.0000
    161 H          -4.5453   -2.6158   -1.4888 H       1  UNL1        0.0000
    162 C          -3.0153   -3.9067   -4.3353 C.3     1  UNL1        0.0000
    163 H          -2.4311   -2.9969   -4.5966 H       1  UNL1        0.0000
    164 H          -3.3916   -4.3434   -5.2865 H       1  UNL1        0.0000
    165 C          -4.2025   -3.5275   -3.4247 C.3     1  UNL1        0.0000
    166 H          -4.8581   -2.8025   -3.9547 H       1  UNL1        0.0000
    167 H           5.0705    4.3905    4.9005 H       1  UNL1        0.0000
    168 H           6.4197    2.6314    6.0736 H       1  UNL1        0.0000
    169 H           6.7570    0.4145    5.0468 H       1  UNL1        0.0000
    170 H           5.7696   -0.1241    2.8098 H       1  UNL1        0.0000
    171 H           0.0538   -5.7243    2.4552 H       1  UNL1        0.0000
    172 H           0.5648   -6.7696    4.6725 H       1  UNL1        0.0000
    173 H           2.6767   -6.2710    5.8448 H       1  UNL1        0.0000
    174 H           4.3521   -4.6963    4.8436 H       1  UNL1        0.0000
    175 H          -5.8381   -0.3516    2.7351 H       1  UNL1        0.0000
    176 H          -6.7223   -1.1157    4.9565 H       1  UNL1        0.0000
    177 H          -6.0042   -3.2666    5.9241 H       1  UNL1        0.0000
    178 H          -4.3686   -4.7310    4.7133 H       1  UNL1        0.0000
    179 H          -1.6812    6.5883    2.3446 H       1  UNL1        0.0000
    180 H          -5.5816    4.2891    4.5111 H       1  UNL1        0.0000
    181 H          -4.5767    6.3427    5.5425 H       1  UNL1        0.0000
    182 H          -2.6593    7.4714    4.4789 H       1  UNL1        0.0000
@<TRIPOS>BOND
     1     1     7    1
     2     1     3    1
     3     1     2    1
     4     1     6    1
     5     1    14    1
     6     2    12    1
     7     3    13    1
     8     4    14    1
     9     5    14    1
    10     6    11    1
    11     7    10    1
    12     8    14    1
    13     9    14    1
    14    10    39    1
    15    10     8    1
    16    11    15    1
    17    11     9    1
    18    12    27    1
    19    12     4    1
    20    13    51    1
    21    13     5    1
    22    15    66    1
    23    15    16    1
    24    16    18   am
    25    16    17   am
    26    17    19    2
    27    17    20    1
    28    18    22    1
    29    20    23   ar
    30    21    18    2
    31    22    24   ar
    32    22    20   ar
    33    23   174    1
    34    23    25   ar
    35    24    26   ar
    36    25   173    1
    37    26   172    1
    38    26    25   ar
    39    27    65    1
    40    27    28    1
    41    28    30   am
    42    28    29   am
    43    29    31    2
    44    29    32    1
    45    30    34    1
    46    32    35   ar
    47    33    30    2
    48    34    32   ar
    49    34    36   ar
    50    35   167    1
    51    35    37   ar
    52    36    38   ar
    53    37   168    1
    54    38   169    1
    55    38    37   ar
    56    39    64    1
    57    39    40    1
    58    40    41   am
    59    40    42   am
    60    41    44    1
    61    42    45    2
    62    42    46    1
    63    43    41    2
    64    44    47   ar
    65    44    46   ar
    66    46    48   ar
    67    47    49   ar
    68    48   180    1
    69    48    50   ar
    70    49   182    1
    71    49    50   ar
    72    50   181    1
    73    51    63    1
    74    51    52    1
    75    52    53   am
    76    52    54   am
    77    53    56    1
    78    54    57    2
    79    54    58    1
    80    55    53    2
    81    56    58   ar
    82    56    59   ar
    83    58    60   ar
    84    59    61   ar
    85    60   178    1
    86    60    62   ar
    87    61   176    1
    88    61    62   ar
    89    62   177    1
    90    67    72    1
    91    67    70    1
    92    68    67    1
    93    69    67    1
    94    70    71    1
    95    70    84    1
    96    70    77    1
    97    72    73    1
    98    72    87    1
    99    72    74    1
   100    74    76    1
   101    74    80    1
   102    75    74    1
   103    77    78    1
   104    77    80    1
   105    79    77    1
   106    80    81    1
   107    80    27    1
   108    81    82    1
   109    81    83    1
   110    84    86    1
   111    84    90    1
   112    85    84    1
   113    87    89    1
   114    87    90    1
   115    88    87    1
   116    90    91    1
   117    90    81    1
   118    92    93    1
   119    92    95    1
   120    94    92    1
   121    95   101    1
   122    95    39    1
   123    96    97    1
   124    96    98    1
   125    96    92    1
   126    98    99    1
   127    98   104    1
   128   100    98    1
   129   101   103    1
   130   101   102    1
   131   104   105    1
   132   104   101    1
   133   106   108    1
   134   106   104    1
   135   107   106    1
   136   109   111    1
   137   109    95    1
   138   110   109    1
   139   112    96    1
   140   112   115    1
   141   113   112    1
   142   114   112    1
   143   115   116    1
   144   115   106    1
   145   115   109    1
   146   117   118    1
   147   117   120    1
   148   119   117    1
   149   120   121    1
   150   120   127    1
   151   122   123    1
   152   122   117    1
   153   122   124    1
   154   124   125    1
   155   124   130    1
   156   126   124    1
   157   127   129    1
   158   127   128    1
   159   130   127    1
   160   130    15    1
   161   131   133    1
   162   131   130    1
   163   132   131    1
   164   134   136    1
   165   134   120    1
   166   135   134    1
   167   137   122    1
   168   137   140    1
   169   138   137    1
   170   139   137    1
   171   140   141    1
   172   140   134    1
   173   140   131    1
   174   142   143    1
   175   142   145    1
   176   144   142    1
   177   145   151    1
   178   145    51    1
   179   146   147    1
   180   146   148    1
   181   146   142    1
   182   148   149    1
   183   148   154    1
   184   150   148    1
   185   151   153    1
   186   151   152    1
   187   154   155    1
   188   154   151    1
   189   156   158    1
   190   156   154    1
   191   157   156    1
   192   159   161    1
   193   159   145    1
   194   160   159    1
   195   162   146    1
   196   162   165    1
   197   163   162    1
   198   164   162    1
   199   165   166    1
   200   165   156    1
   201   165   159    1
   202   170    36    1
   203   171    24    1
   204   175    59    1
   205   179    47    1
