@<TRIPOS>MOLECULE
RhRh_ACB4_9_redo_sp
 114 129 0 0 0
SMALL
GASTEIGER

@<TRIPOS>ATOM
      1 Rh         -0.6862   -0.0862   -0.9339 Rh      1  UNL1        0.0000
      2 Rh          0.7617   -0.0053    0.9701 Rh      1  UNL1        0.0000
      3 C          -1.8984   -0.9852    1.5249 C.3     1  UNL1        0.0000
      4 C           1.9731    0.8964   -1.4887 C.3     1  UNL1        0.0000
      5 C           0.7909   -2.5117   -0.4751 C.3     1  UNL1        0.0000
      6 C          -0.7508    2.4026    0.5351 C.3     1  UNL1        0.0000
      7 O          -1.2158    1.8458   -0.5108 O.3     1  UNL1        0.0000
      8 O           0.1487    1.9333    1.2964 O.3     1  UNL1        0.0000
      9 O           0.8866    0.6027   -2.0737 O.3     1  UNL1        0.0000
     10 O           2.2484    0.6804   -0.2658 O.3     1  UNL1        0.0000
     11 O          -0.0990   -2.0350   -1.2415 O.3     1  UNL1        0.0000
     12 O           1.2910   -1.9373    0.5450 O.3     1  UNL1        0.0000
     13 O          -2.1752   -0.7617    0.3043 O.3     1  UNL1        0.0000
     14 O          -0.8066   -0.7052    2.1078 O.3     1  UNL1        0.0000
     15 N          -2.7108    3.7984    0.3925 N.am    1  UNL1        0.0000
     16 N           3.9674    2.2591   -1.4102 N.am    1  UNL1        0.0000
     17 N           2.7453   -3.9047   -0.4158 N.am    1  UNL1        0.0000
     18 N          -3.9550   -2.2540    1.4566 N.am    1  UNL1        0.0000
     19 C          -1.3364    3.7654    0.8891 C.3     1  UNL1        0.0000
     20 C          -0.4599    5.0090    0.5241 C.3     1  UNL1        0.0000
     21 C          -0.8037    5.6218    1.9018 C.3     1  UNL1        0.0000
     22 C          -1.2420    4.2156    2.3754 C.3     1  UNL1        0.0000
     23 C          -3.6052    2.8228    0.8869 C.2     1  UNL1        0.0000
     24 C          -4.8020    2.8616    0.0101 C.ar    1  UNL1        0.0000
     25 C          -5.9835    2.1366    0.0681 C.ar    1  UNL1        0.0000
     26 C          -6.9261    2.3792   -0.9391 C.ar    1  UNL1        0.0000
     27 C          -6.6815    3.3090   -1.9577 C.ar    1  UNL1        0.0000
     28 C          -5.4801    4.0270   -2.0077 C.ar    1  UNL1        0.0000
     29 C          -4.5530    3.7826   -1.0070 C.ar    1  UNL1        0.0000
     30 C          -3.1863    4.3513   -0.8169 C.2     1  UNL1        0.0000
     31 C           3.0512    1.5932   -2.3215 C.3     1  UNL1        0.0000
     32 C           2.4496    2.4658   -3.4613 C.3     1  UNL1        0.0000
     33 C           2.6768    1.2916   -4.4449 C.3     1  UNL1        0.0000
     34 C           3.6603    0.6682   -3.4237 C.3     1  UNL1        0.0000
     35 C           3.4926    3.3046   -0.5952 C.2     1  UNL1        0.0000
     36 C           4.5431    3.5438    0.4293 C.ar    1  UNL1        0.0000
     37 C           4.6067    4.4770    1.4522 C.ar    1  UNL1        0.0000
     38 C           5.7277    4.4353    2.2905 C.ar    1  UNL1        0.0000
     39 C           6.7398    3.4864    2.0981 C.ar    1  UNL1        0.0000
     40 C           6.6644    2.5484    1.0609 C.ar    1  UNL1        0.0000
     41 C           5.5512    2.5988    0.2373 C.ar    1  UNL1        0.0000
     42 C           5.1742    1.7325   -0.9174 C.2     1  UNL1        0.0000
     43 C           1.3351   -3.9102   -0.7737 C.3     1  UNL1        0.0000
     44 C           0.9626   -4.4257   -2.1875 C.3     1  UNL1        0.0000
     45 C          -0.2547   -5.1547   -1.5648 C.3     1  UNL1        0.0000
     46 C           0.4214   -5.0283   -0.1784 C.3     1  UNL1        0.0000
     47 C           3.2955   -4.3348    0.8119 C.2     1  UNL1        0.0000
     48 C           4.6675   -3.7482    0.8589 C.ar    1  UNL1        0.0000
     49 C           5.6566   -3.8780    1.8206 C.ar    1  UNL1        0.0000
     50 C           6.8401   -3.1538    1.6262 C.ar    1  UNL1        0.0000
     51 C           7.0082   -2.3281    0.5078 C.ar    1  UNL1        0.0000
     52 C           6.0047   -2.2042   -0.4613 C.ar    1  UNL1        0.0000
     53 C           4.8432   -2.9342   -0.2616 C.ar    1  UNL1        0.0000
     54 C           3.5949   -2.9884   -1.0624 C.2     1  UNL1        0.0000
     55 C          -2.9739   -1.6791    2.3616 C.3     1  UNL1        0.0000
     56 C          -3.4941   -0.7909    3.5366 C.3     1  UNL1        0.0000
     57 C          -2.5100   -1.5191    4.4855 C.3     1  UNL1        0.0000
     58 C          -2.3660   -2.6396    3.4265 C.3     1  UNL1        0.0000
     59 C          -3.5662   -3.2786    0.5709 C.2     1  UNL1        0.0000
     60 C          -4.6460   -3.3806   -0.4463 C.ar    1  UNL1        0.0000
     61 C          -4.7853   -4.2392   -1.5255 C.ar    1  UNL1        0.0000
     62 C          -5.9098   -4.0662   -2.3421 C.ar    1  UNL1        0.0000
     63 C          -6.8519   -3.0651   -2.0734 C.ar    1  UNL1        0.0000
     64 C          -6.7010   -2.2048   -0.9788 C.ar    1  UNL1        0.0000
     65 C          -5.5845   -2.3841   -0.1778 C.ar    1  UNL1        0.0000
     66 C          -5.1340   -1.6228    1.0230 C.2     1  UNL1        0.0000
     67 H           0.5838    4.6997    0.4547 H       1  UNL1        0.0000
     68 H          -0.7428    5.5437   -0.3777 H       1  UNL1        0.0000
     69 H          -1.6464    6.3160    1.8401 H       1  UNL1        0.0000
     70 H           0.0088    6.1036    2.4511 H       1  UNL1        0.0000
     71 H          -2.1586    4.1166    2.9563 H       1  UNL1        0.0000
     72 H          -0.4380    3.6700    2.8701 H       1  UNL1        0.0000
     73 H          -7.4335    3.4697   -2.7239 H       1  UNL1        0.0000
     74 H          -5.2703    4.7411   -2.7965 H       1  UNL1        0.0000
     75 H           1.4345    2.8268   -3.3033 H       1  UNL1        0.0000
     76 H           3.1139    3.3096   -3.6605 H       1  UNL1        0.0000
     77 H           1.7757    0.6886   -4.5663 H       1  UNL1        0.0000
     78 H           3.0824    1.5395   -5.4284 H       1  UNL1        0.0000
     79 H           4.6925    0.9620   -3.6125 H       1  UNL1        0.0000
     80 H           3.6229   -0.4023   -3.2274 H       1  UNL1        0.0000
     81 H           5.8141    5.1464    3.1058 H       1  UNL1        0.0000
     82 H           7.5937    3.4777    2.7680 H       1  UNL1        0.0000
     83 H           7.4370    1.8034    0.9050 H       1  UNL1        0.0000
     84 H           0.7878   -3.6633   -2.9450 H       1  UNL1        0.0000
     85 H           1.7297   -5.1234   -2.5315 H       1  UNL1        0.0000
     86 H          -1.1632   -4.5527   -1.6174 H       1  UNL1        0.0000
     87 H          -0.4666   -6.1660   -1.9195 H       1  UNL1        0.0000
     88 H           1.0241   -5.8981    0.0791 H       1  UNL1        0.0000
     89 H          -0.1978   -4.7517    0.6737 H       1  UNL1        0.0000
     90 H           5.5065   -4.5083    2.6904 H       1  UNL1        0.0000
     91 H           7.6373   -3.2253    2.3596 H       1  UNL1        0.0000
     92 H           7.9301   -1.7668    0.3930 H       1  UNL1        0.0000
     93 H           6.1105   -1.5400   -1.3095 H       1  UNL1        0.0000
     94 H          -3.4064    0.2846    3.3934 H       1  UNL1        0.0000
     95 H          -4.5344   -1.0370    3.7468 H       1  UNL1        0.0000
     96 H          -1.5790   -0.9657    4.6154 H       1  UNL1        0.0000
     97 H          -2.8981   -1.8105    5.4641 H       1  UNL1        0.0000
     98 H          -3.0534   -3.4702    3.6005 H       1  UNL1        0.0000
     99 H          -1.3712   -3.0268    3.2105 H       1  UNL1        0.0000
    100 H          -4.0449   -5.0061   -1.7260 H       1  UNL1        0.0000
    101 H          -7.4192   -1.4209   -0.7637 H       1  UNL1        0.0000
    102 O           5.7807    0.7755   -1.3563 O.2     1  UNL1        0.0000
    103 O           2.4180    3.8547   -0.7365 O.2     1  UNL1        0.0000
    104 O           2.7509   -5.0298    1.6433 O.2     1  UNL1        0.0000
    105 O           3.2868   -2.3669   -2.0628 O.2     1  UNL1        0.0000
    106 O          -5.6685   -0.6623    1.5408 O.2     1  UNL1        0.0000
    107 O          -2.5326   -3.9118    0.6536 O.2     1  UNL1        0.0000
    108 O          -2.6087    5.1287   -1.5484 O.2     1  UNL1        0.0000
    109 O          -3.3661    2.0975    1.8332 O.2     1  UNL1        0.0000
    110 H          -6.1488    1.3977    0.8430 H       1  UNL1        0.0000
    111 H          -7.8647    1.8335   -0.9332 H       1  UNL1        0.0000
    112 H           3.8135    5.2031    1.5937 H       1  UNL1        0.0000
    113 H          -6.0538   -4.7145   -3.2005 H       1  UNL1        0.0000
    114 H          -7.7101   -2.9542   -2.7285 H       1  UNL1        0.0000
@<TRIPOS>BOND
     1     1     7    1
     2     1    13    1
     3     1     2    1
     4     2     8    1
     5     2    14    1
     6     3    14    1
     7     3    55    1
     8     4    10    1
     9     5    12    1
    10     6    19    1
    11     6     8    1
    12     7     6    1
    13     9     4    1
    14     9     1    1
    15    10     2    1
    16    11     1    1
    17    11     5    1
    18    12     2    1
    19    13     3    1
    20    15    23   am
    21    15    19    1
    22    16    42   am
    23    16    35   am
    24    17    47   am
    25    18    55    1
    26    19    22    1
    27    20    19    1
    28    20    21    1
    29    21    22    1
    30    21    70    1
    31    22    72    1
    32    22    71    1
    33    23   109    2
    34    24    25   ar
    35    24    23    1
    36    25   110    1
    37    26   111    1
    38    26    25   ar
    39    27    26   ar
    40    28    27   ar
    41    28    29   ar
    42    29    30    1
    43    29    24   ar
    44    30    15   am
    45    31     4    1
    46    31    16    1
    47    32    75    1
    48    32    31    1
    49    33    32    1
    50    33    34    1
    51    34    80    1
    52    34    31    1
    53    35    36    1
    54    36    37   ar
    55    37   112    1
    56    37    38   ar
    57    38    81    1
    58    39    38   ar
    59    39    82    1
    60    40    39   ar
    61    41    36   ar
    62    41    40   ar
    63    42    41    1
    64    43     5    1
    65    43    17    1
    66    43    46    1
    67    44    45    1
    68    44    43    1
    69    45    46    1
    70    46    88    1
    71    46    89    1
    72    47    48    1
    73    47   104    2
    74    48    49   ar
    75    49    90    1
    76    50    49   ar
    77    50    91    1
    78    51    50   ar
    79    52    53   ar
    80    52    51   ar
    81    53    48   ar
    82    54    17   am
    83    54    53    1
    84    55    58    1
    85    55    56    1
    86    56    95    1
    87    56    57    1
    88    57    96    1
    89    57    97    1
    90    58    98    1
    91    58    57    1
    92    59   107    2
    93    59    18   am
    94    60    65   ar
    95    60    59    1
    96    61    60   ar
    97    62    63   ar
    98    62    61   ar
    99    63    64   ar
   100    64   101    1
   101    64    65   ar
   102    65    66    1
   103    66    18   am
   104    66   106    2
   105    67    20    1
   106    68    20    1
   107    69    21    1
   108    73    27    1
   109    74    28    1
   110    76    32    1
   111    77    33    1
   112    78    33    1
   113    79    34    1
   114    83    40    1
   115    84    44    1
   116    85    44    1
   117    86    45    1
   118    87    45    1
   119    92    51    1
   120    93    52    1
   121    94    56    1
   122    99    58    1
   123   100    61    1
   124   102    42    2
   125   103    35    2
   126   105    54    2
   127   108    30    2
   128   113    62    1
   129   114    63    1
