@<TRIPOS>MOLECULE
RhRh_S-PTV4_6_sp
 122 133 0 0 0
SMALL
GASTEIGER

@<TRIPOS>ATOM
      1 Rh          0.7265   -1.0964   -1.2079 Rh      1  UNL1        0.0000
      2 Rh         -0.2579   -0.2842    0.8135 Rh      1  UNL1        0.0000
      3 C           0.9280    1.7658   -0.8148 C.3     1  UNL1        0.0000
      4 C          -0.6732   -3.1057    0.3151 C.3     1  UNL1        0.0000
      5 C          -2.0107   -0.2413   -1.4798 C.3     1  UNL1        0.0000
      6 C           2.4821   -1.1675    1.0822 C.3     1  UNL1        0.0000
      7 O          -1.0573   -0.7262   -2.1571 O.3     1  UNL1        0.0000
      8 O          -1.9868    0.0341   -0.2374 O.3     1  UNL1        0.0000
      9 O           1.2898    0.8421   -1.6059 O.3     1  UNL1        0.0000
     10 O           0.3301    1.6050    0.2956 O.3     1  UNL1        0.0000
     11 O           2.4456   -1.4633   -0.1530 O.3     1  UNL1        0.0000
     12 O           1.5404   -0.6508    1.7557 O.3     1  UNL1        0.0000
     13 O           0.0363   -2.9832   -0.7269 O.3     1  UNL1        0.0000
     14 O          -0.8791   -2.2099    1.1935 O.3     1  UNL1        0.0000
     15 N          -3.8381    1.3186   -1.7157 N.am    1  UNL1        0.0000
     16 N           1.2832    4.0745   -0.1067 N.am    1  UNL1        0.0000
     17 N           4.8817   -1.5770    0.9132 N.am    1  UNL1        0.0000
     18 N          -2.7452   -4.1639    0.9622 N.am    1  UNL1        0.0000
     19 C          -3.0320    2.4632   -1.6064 C.2     1  UNL1        0.0000
     20 C          -3.8476    3.4716   -0.8784 C.ar    1  UNL1        0.0000
     21 C          -3.5421    4.7756   -0.5199 C.ar    1  UNL1        0.0000
     22 C          -4.5229    5.4842    0.1877 C.ar    1  UNL1        0.0000
     23 C          -5.7505    4.8978    0.5174 C.ar    1  UNL1        0.0000
     24 C          -6.0419    3.5758    0.1554 C.ar    1  UNL1        0.0000
     25 C          -5.0698    2.8808   -0.5454 C.ar    1  UNL1        0.0000
     26 C          -5.0563    1.4737   -1.0359 C.2     1  UNL1        0.0000
     27 C           2.1304    3.8101    0.9870 C.2     1  UNL1        0.0000
     28 C           1.8342    4.8719    1.9908 C.ar    1  UNL1        0.0000
     29 C           2.3845    5.0938    3.2428 C.ar    1  UNL1        0.0000
     30 C           1.8977    6.1850    3.9741 C.ar    1  UNL1        0.0000
     31 C           0.8966    7.0150    3.4548 C.ar    1  UNL1        0.0000
     32 C           0.3479    6.7807    2.1875 C.ar    1  UNL1        0.0000
     33 C           0.8355    5.6977    1.4734 C.ar    1  UNL1        0.0000
     34 C           0.4568    5.1792    0.1284 C.2     1  UNL1        0.0000
     35 C           5.1968   -0.5529    0.0006 C.2     1  UNL1        0.0000
     36 C           6.3062   -1.0921   -0.8366 C.ar    1  UNL1        0.0000
     37 C           7.0078   -0.4966   -1.8726 C.ar    1  UNL1        0.0000
     38 C           8.0089   -1.2565   -2.4907 C.ar    1  UNL1        0.0000
     39 C           8.2851   -2.5646   -2.0740 C.ar    1  UNL1        0.0000
     40 C           7.5686   -3.1570   -1.0264 C.ar    1  UNL1        0.0000
     41 C           6.5805   -2.3961   -0.4215 C.ar    1  UNL1        0.0000
     42 C           5.6441   -2.7362    0.6865 C.2     1  UNL1        0.0000
     43 C          -3.2946   -4.5432    2.2049 C.2     1  UNL1        0.0000
     44 C          -4.6059   -3.8402    2.2961 C.ar    1  UNL1        0.0000
     45 C          -5.5655   -3.8605    3.2952 C.ar    1  UNL1        0.0000
     46 C          -6.6875   -3.0387    3.1238 C.ar    1  UNL1        0.0000
     47 C          -6.8241   -2.2255    1.9924 C.ar    1  UNL1        0.0000
     48 C          -5.8508   -2.2106    0.9842 C.ar    1  UNL1        0.0000
     49 C          -4.7517   -3.0375    1.1614 C.ar    1  UNL1        0.0000
     50 C          -3.5564   -3.2328    0.3009 C.2     1  UNL1        0.0000
     51 C          -3.3537    0.0170   -2.1649 C.3     1  UNL1        0.0000
     52 C          -3.4356   -0.1828   -3.6925 C.3     1  UNL1        0.0000
     53 C          -2.5125    0.7251   -4.5128 C.3     1  UNL1        0.0000
     54 C          -3.2475   -1.6633   -4.0565 C.3     1  UNL1        0.0000
     55 C           1.1119    3.2130   -1.2714 C.3     1  UNL1        0.0000
     56 C           2.1405    3.4860   -2.3922 C.3     1  UNL1        0.0000
     57 C           1.6517    2.9295   -3.7379 C.3     1  UNL1        0.0000
     58 C           3.5657    3.0260   -2.0694 C.3     1  UNL1        0.0000
     59 C           3.7518   -1.5807    1.8313 C.3     1  UNL1        0.0000
     60 C           4.0495   -0.8742    3.1764 C.3     1  UNL1        0.0000
     61 C           4.1083    0.6534    3.0874 C.3     1  UNL1        0.0000
     62 C           3.0828   -1.3392    4.2747 C.3     1  UNL1        0.0000
     63 C          -1.3566   -4.4503    0.6075 C.3     1  UNL1        0.0000
     64 C          -1.2035   -5.5760   -0.4362 C.3     1  UNL1        0.0000
     65 C          -1.7897   -5.2568   -1.8161 C.3     1  UNL1        0.0000
     66 C           0.2600   -6.0305   -0.5305 C.3     1  UNL1        0.0000
     67 H          -6.4861    5.4762    1.0675 H       1  UNL1        0.0000
     68 H          -6.9854    3.1071    0.4131 H       1  UNL1        0.0000
     69 H           0.5410    7.8526    4.0464 H       1  UNL1        0.0000
     70 H          -0.4288    7.4154    1.7747 H       1  UNL1        0.0000
     71 H           8.5803   -0.8273   -3.3076 H       1  UNL1        0.0000
     72 H           9.0664   -3.1279   -2.5743 H       1  UNL1        0.0000
     73 H           7.7698   -4.1707   -0.6974 H       1  UNL1        0.0000
     74 H          -7.6976   -1.5887    1.8961 H       1  UNL1        0.0000
     75 H          -5.9409   -1.5629    0.1185 H       1  UNL1        0.0000
     76 H          -4.0287   -0.7088   -1.7033 H       1  UNL1        0.0000
     77 H          -2.6711    0.5384   -5.5800 H       1  UNL1        0.0000
     78 H          -1.4640    0.5292   -4.2801 H       1  UNL1        0.0000
     79 H          -2.7053    1.7828   -4.3231 H       1  UNL1        0.0000
     80 H          -3.8995   -2.3076   -3.4596 H       1  UNL1        0.0000
     81 H          -2.2174   -1.9801   -3.8835 H       1  UNL1        0.0000
     82 H          -3.4843   -1.8186   -5.1137 H       1  UNL1        0.0000
     83 H           0.1225    3.4792   -1.6619 H       1  UNL1        0.0000
     84 H           1.6931    1.8392   -3.7490 H       1  UNL1        0.0000
     85 H           2.2841    3.3081   -4.5473 H       1  UNL1        0.0000
     86 H           0.6194    3.2312   -3.9434 H       1  UNL1        0.0000
     87 H           3.6094    1.9472   -1.9110 H       1  UNL1        0.0000
     88 H           3.9538    3.4974   -1.1649 H       1  UNL1        0.0000
     89 H           4.2302    3.2841   -2.9013 H       1  UNL1        0.0000
     90 H           3.6043   -2.6450    2.0585 H       1  UNL1        0.0000
     91 H           4.8378    0.9966    2.3531 H       1  UNL1        0.0000
     92 H           4.3817    1.0648    4.0653 H       1  UNL1        0.0000
     93 H           3.1437    1.0700    2.7941 H       1  UNL1        0.0000
     94 H           3.0508   -2.4323    4.3445 H       1  UNL1        0.0000
     95 H           2.0705   -0.9782    4.0846 H       1  UNL1        0.0000
     96 H           3.4101   -0.9530    5.2450 H       1  UNL1        0.0000
     97 H          -0.9129   -4.8095    1.5436 H       1  UNL1        0.0000
     98 H          -1.2824   -4.4043   -2.2708 H       1  UNL1        0.0000
     99 H          -2.8541   -5.0214   -1.7606 H       1  UNL1        0.0000
    100 H          -1.6689   -6.1247   -2.4724 H       1  UNL1        0.0000
    101 H           0.6699   -6.2696    0.4571 H       1  UNL1        0.0000
    102 H           0.8833   -5.2560   -0.9822 H       1  UNL1        0.0000
    103 H           0.3325   -6.9313   -1.1471 H       1  UNL1        0.0000
    104 H          -4.4736    0.0853   -3.9331 H       1  UNL1        0.0000
    105 H           2.1425    4.5813   -2.4768 H       1  UNL1        0.0000
    106 H           5.0484   -1.2441    3.4437 H       1  UNL1        0.0000
    107 H          -1.7800   -6.4073   -0.0083 H       1  UNL1        0.0000
    108 O          -0.3908    5.6024   -0.6368 O.2     1  UNL1        0.0000
    109 O           2.9244    2.8981    1.0606 O.2     1  UNL1        0.0000
    110 O           4.6567    0.5305   -0.0644 O.2     1  UNL1        0.0000
    111 O           5.5189   -3.7824    1.2915 O.2     1  UNL1        0.0000
    112 O          -1.8949    2.5512   -2.0286 O.2     1  UNL1        0.0000
    113 O          -5.8940    0.6035   -0.8875 O.2     1  UNL1        0.0000
    114 O          -2.7563   -5.2796    3.0047 O.2     1  UNL1        0.0000
    115 O          -3.2881   -2.7091   -0.7648 O.2     1  UNL1        0.0000
    116 H          -2.5803    5.2137   -0.7641 H       1  UNL1        0.0000
    117 H          -4.3255    6.5080    0.4896 H       1  UNL1        0.0000
    118 H           3.1579    4.4407    3.6324 H       1  UNL1        0.0000
    119 H           2.3010    6.3921    4.9602 H       1  UNL1        0.0000
    120 H           6.7799    0.5164   -2.1862 H       1  UNL1        0.0000
    121 H          -7.4607   -3.0242    3.8855 H       1  UNL1        0.0000
    122 H          -5.4413   -4.4830    4.1745 H       1  UNL1        0.0000
@<TRIPOS>BOND
     1     1    13    1
     2     1    11    1
     3     1     2    1
     4     2    14    1
     5     2    12    1
     6     3    55    1
     7     3    10    1
     8     4    63    1
     9     4    14    1
    10     5    51    1
    11     5     8    1
    12     6    12    1
    13     6    59    1
    14     7     5    1
    15     7     1    1
    16     8     2    1
    17     9     1    1
    18     9     3    1
    19    10     2    1
    20    11     6    1
    21    13     4    1
    22    15    19   am
    23    15    26   am
    24    16    34   am
    25    16    27   am
    26    17    59    1
    27    18    43   am
    28    19    20    1
    29    20    25   ar
    30    20    21   ar
    31    21    22   ar
    32    22   117    1
    33    22    23   ar
    34    23    67    1
    35    24    68    1
    36    24    23   ar
    37    25    24   ar
    38    26   113    2
    39    26    25    1
    40    27   109    2
    41    27    28    1
    42    28    29   ar
    43    29   118    1
    44    29    30   ar
    45    30   119    1
    46    31    30   ar
    47    31    69    1
    48    32    31   ar
    49    33    28   ar
    50    33    32   ar
    51    34    33    1
    52    35    17   am
    53    36    41   ar
    54    36    35    1
    55    37    36   ar
    56    38    39   ar
    57    38    37   ar
    58    39    40   ar
    59    40    73    1
    60    40    41   ar
    61    41    42    1
    62    42    17   am
    63    42   111    2
    64    43    44    1
    65    43   114    2
    66    44    45   ar
    67    45   122    1
    68    46    45   ar
    69    46   121    1
    70    47    46   ar
    71    48    49   ar
    72    48    47   ar
    73    49    44   ar
    74    50    18   am
    75    50    49    1
    76    51    15    1
    77    51    76    1
    78    52    51    1
    79    53    79    1
    80    53    78    1
    81    53    52    1
    82    54    81    1
    83    54    52    1
    84    54    80    1
    85    55    83    1
    86    55    16    1
    87    56    58    1
    88    56    55    1
    89    57    56    1
    90    58    87    1
    91    58    88    1
    92    59    90    1
    93    59    60    1
    94    60   106    1
    95    60    62    1
    96    61    60    1
    97    61    92    1
    98    62    94    1
    99    62    96    1
   100    63    18    1
   101    63    97    1
   102    64   107    1
   103    64    63    1
   104    65    99    1
   105    65    64    1
   106    66    64    1
   107    66   101    1
   108    70    32    1
   109    71    38    1
   110    72    39    1
   111    74    47    1
   112    75    48    1
   113    77    53    1
   114    82    54    1
   115    84    57    1
   116    85    57    1
   117    86    57    1
   118    89    58    1
   119    91    61    1
   120    93    61    1
   121    95    62    1
   122    98    65    1
   123   100    65    1
   124   102    66    1
   125   103    66    1
   126   104    52    1
   127   105    56    1
   128   108    34    2
   129   110    35    2
   130   112    19    2
   131   115    50    2
   132   116    21    1
   133   120    37    1
