@<TRIPOS>MOLECULE
RhRh_S-TCPTTL4_fromcarbene_20kcal_3_sp
 134 145 0 0 0
SMALL
GASTEIGER

@<TRIPOS>ATOM
      1 Rh          1.2726    0.2821   -0.6651 Rh      1  UNL1        0.0000
      2 Rh          1.4333    0.2939   -3.0526 Rh      1  UNL1        0.0000
      3 C           0.4420   -2.1678   -1.9170 C.3     1  UNL1        0.0000
      4 C           2.3806    2.7123   -1.8052 C.3     1  UNL1        0.0000
      5 C          -1.0319    1.3662   -1.9804 C.3     1  UNL1        0.0000
      6 C           3.7748   -0.7323   -1.7035 C.3     1  UNL1        0.0000
      7 O           2.0191    2.2079   -0.7005 O.3     1  UNL1        0.0000
      8 O           2.2184    2.1963   -2.9558 O.3     1  UNL1        0.0000
      9 O           3.1955   -0.4511   -0.6098 O.3     1  UNL1        0.0000
     10 O           3.3346   -0.4852   -2.8664 O.3     1  UNL1        0.0000
     11 O           0.5397   -1.6206   -0.7726 O.3     1  UNL1        0.0000
     12 O           0.7264   -1.6325   -3.0280 O.3     1  UNL1        0.0000
     13 O          -0.6163    1.0181   -0.8357 O.3     1  UNL1        0.0000
     14 O          -0.4601    1.1193   -3.0901 O.3     1  UNL1        0.0000
     15 N           2.7891    4.7389   -0.5124 N.am    1  UNL1        0.0000
     16 N           5.0729   -2.3233   -0.4375 N.am    1  UNL1        0.0000
     17 N          -1.3597   -3.6159   -1.2222 N.am    1  UNL1        0.0000
     18 N          -3.3587    1.8040   -1.1777 N.am    1  UNL1        0.0000
     19 CL          3.2464    4.1002    4.0398 Cl      1  UNL1        0.0000
     20 CL          1.2440    6.0920    5.4437 Cl      1  UNL1        0.0000
     21 CL         -0.5343    8.0143    3.7243 Cl      1  UNL1        0.0000
     22 CL         -0.3288    7.9715    0.5746 Cl      1  UNL1        0.0000
     23 CL          7.3167   -2.8777    3.5605 Cl      1  UNL1        0.0000
     24 CL          5.6517   -4.9616    5.2505 Cl      1  UNL1        0.0000
     25 CL          2.9811   -6.1385    4.1091 Cl      1  UNL1        0.0000
     26 CL          1.9394   -5.2434    1.2690 Cl      1  UNL1        0.0000
     27 CL         -5.4596   -1.6940   -1.9469 Cl      1  UNL1        0.0000
     28 CL         -7.3838   -2.7291    0.3448 Cl      1  UNL1        0.0000
     29 CL         -6.2928   -4.6706    2.5484 Cl      1  UNL1        0.0000
     30 CL         -3.3072   -5.6964    2.4190 Cl      1  UNL1        0.0000
     31 CL         -4.4190    0.5611    3.1485 Cl      1  UNL1        0.0000
     32 CL         -7.5160   -0.0227    3.1988 Cl      1  UNL1        0.0000
     33 CL         -9.2381    0.3668    0.6121 Cl      1  UNL1        0.0000
     34 CL         -7.8560    1.2093   -2.0966 Cl      1  UNL1        0.0000
     35 C           3.0867    4.0647   -1.7720 C.3     1  UNL1        0.0000
     36 C           3.1588    4.3345    0.7825 C.2     1  UNL1        0.0000
     37 C           2.3257    5.1659    1.7125 C.ar    1  UNL1        0.0000
     38 C           2.2641    5.1675    3.0979 C.ar    1  UNL1        0.0000
     39 C           1.3644    6.0629    3.7180 C.ar    1  UNL1        0.0000
     40 C           0.5647    6.9282    2.9451 C.ar    1  UNL1        0.0000
     41 C           0.6494    6.9158    1.5362 C.ar    1  UNL1        0.0000
     42 C           1.5347    6.0255    0.9479 C.ar    1  UNL1        0.0000
     43 C           1.8198    5.7555   -0.4926 C.2     1  UNL1        0.0000
     44 C           4.6055    3.9621   -2.1801 C.3     1  UNL1        0.0000
     45 C           5.2506    2.6431   -1.7164 C.3     1  UNL1        0.0000
     46 C           4.6711    4.0339   -3.7175 C.3     1  UNL1        0.0000
     47 C           5.3631    5.1602   -1.5876 C.3     1  UNL1        0.0000
     48 C           5.1593   -1.3803   -1.5511 C.3     1  UNL1        0.0000
     49 C           5.9265   -2.2319    0.6745 C.2     1  UNL1        0.0000
     50 C           5.3872   -3.2062    1.6743 C.ar    1  UNL1        0.0000
     51 C           5.8556   -3.5566    2.9308 C.ar    1  UNL1        0.0000
     52 C           5.1009   -4.4864    3.6804 C.ar    1  UNL1        0.0000
     53 C           3.9032   -5.0196    3.1651 C.ar    1  UNL1        0.0000
     54 C           3.4394   -4.6472    1.8830 C.ar    1  UNL1        0.0000
     55 C           4.2093   -3.7520    1.1551 C.ar    1  UNL1        0.0000
     56 C           3.9957   -3.1846   -0.2116 C.2     1  UNL1        0.0000
     57 C           5.8483   -1.9559   -2.8228 C.3     1  UNL1        0.0000
     58 C           4.9827   -2.9971   -3.5491 C.3     1  UNL1        0.0000
     59 C           6.1842   -0.7870   -3.7693 C.3     1  UNL1        0.0000
     60 C           7.1692   -2.6157   -2.3826 C.3     1  UNL1        0.0000
     61 C          -0.0451   -3.6211   -1.8674 C.3     1  UNL1        0.0000
     62 C          -2.4045   -2.7482   -1.5603 C.2     1  UNL1        0.0000
     63 C          -3.5460   -3.1332   -0.6723 C.ar    1  UNL1        0.0000
     64 C          -4.8679   -2.7205   -0.6859 C.ar    1  UNL1        0.0000
     65 C          -5.7236   -3.2143    0.3223 C.ar    1  UNL1        0.0000
     66 C          -5.2376   -4.1059    1.2995 C.ar    1  UNL1        0.0000
     67 C          -3.9000   -4.5605    1.2577 C.ar    1  UNL1        0.0000
     68 C          -3.0782   -4.0653    0.2565 C.ar    1  UNL1        0.0000
     69 C          -1.6611   -4.4019   -0.1016 C.2     1  UNL1        0.0000
     70 C          -0.0003   -4.4649   -3.1731 C.3     1  UNL1        0.0000
     71 C           1.4589   -4.5240   -3.6624 C.3     1  UNL1        0.0000
     72 C          -0.4526   -5.8941   -2.8163 C.3     1  UNL1        0.0000
     73 C          -0.9087   -3.9160   -4.2851 C.3     1  UNL1        0.0000
     74 C          -2.2646    2.2584   -2.0467 C.3     1  UNL1        0.0000
     75 C          -3.3898    1.5829    0.2161 C.2     1  UNL1        0.0000
     76 C          -4.8041    1.1785    0.5235 C.ar    1  UNL1        0.0000
     77 C          -5.3754    0.7710    1.7208 C.ar    1  UNL1        0.0000
     78 C          -6.7629    0.5121    1.7358 C.ar    1  UNL1        0.0000
     79 C          -7.5357    0.6761    0.5688 C.ar    1  UNL1        0.0000
     80 C          -6.9302    1.0642   -0.6433 C.ar    1  UNL1        0.0000
     81 C          -5.5634    1.3010   -0.6375 C.ar    1  UNL1        0.0000
     82 C          -4.6380    1.6567   -1.7537 C.2     1  UNL1        0.0000
     83 C          -1.8942    3.7788   -1.8792 C.3     1  UNL1        0.0000
     84 C          -3.1987    4.5929   -1.9391 C.3     1  UNL1        0.0000
     85 C          -1.1638    4.0899   -0.5627 C.3     1  UNL1        0.0000
     86 C          -1.0006    4.1895   -3.0650 C.3     1  UNL1        0.0000
     87 H           2.5951    4.6918   -2.5196 H       1  UNL1        0.0000
     88 H           4.8110    1.7948   -2.2482 H       1  UNL1        0.0000
     89 H           5.1351    2.4943   -0.6427 H       1  UNL1        0.0000
     90 H           6.3187    2.6593   -1.9556 H       1  UNL1        0.0000
     91 H           5.7085    3.9282   -4.0495 H       1  UNL1        0.0000
     92 H           4.2947    4.9949   -4.0845 H       1  UNL1        0.0000
     93 H           4.0811    3.2365   -4.1746 H       1  UNL1        0.0000
     94 H           6.3760    5.1866   -2.0006 H       1  UNL1        0.0000
     95 H           5.4477    5.0860   -0.5014 H       1  UNL1        0.0000
     96 H           4.8737    6.1071   -1.8381 H       1  UNL1        0.0000
     97 H           5.8079   -0.5814   -1.1707 H       1  UNL1        0.0000
     98 H           5.5257   -3.3740   -4.4218 H       1  UNL1        0.0000
     99 H           4.0406   -2.5664   -3.8885 H       1  UNL1        0.0000
    100 H           4.7525   -3.8477   -2.9039 H       1  UNL1        0.0000
    101 H           6.7534   -1.1621   -4.6252 H       1  UNL1        0.0000
    102 H           6.8021   -0.0362   -3.2638 H       1  UNL1        0.0000
    103 H           5.2839   -0.2990   -4.1431 H       1  UNL1        0.0000
    104 H           7.7276   -2.9387   -3.2659 H       1  UNL1        0.0000
    105 H           6.9898   -3.4991   -1.7631 H       1  UNL1        0.0000
    106 H           7.7969   -1.9245   -1.8128 H       1  UNL1        0.0000
    107 H           0.6214   -4.0985   -1.1443 H       1  UNL1        0.0000
    108 H           1.5283   -5.2057   -4.5158 H       1  UNL1        0.0000
    109 H           2.1255   -4.8894   -2.8765 H       1  UNL1        0.0000
    110 H           1.8142   -3.5428   -3.9775 H       1  UNL1        0.0000
    111 H          -0.3514   -6.5395   -3.6938 H       1  UNL1        0.0000
    112 H          -1.5021   -5.9214   -2.5080 H       1  UNL1        0.0000
    113 H           0.1488   -6.3184   -2.0070 H       1  UNL1        0.0000
    114 H          -0.6504   -2.8895   -4.5444 H       1  UNL1        0.0000
    115 H          -1.9626   -3.9390   -3.9958 H       1  UNL1        0.0000
    116 H          -0.8003   -4.5418   -5.1769 H       1  UNL1        0.0000
    117 H          -2.6729    2.1443   -3.0522 H       1  UNL1        0.0000
    118 H          -2.9604    5.6603   -1.9318 H       1  UNL1        0.0000
    119 H          -3.8393    4.3938   -1.0746 H       1  UNL1        0.0000
    120 H          -3.7688    4.3742   -2.8465 H       1  UNL1        0.0000
    121 H          -0.9604    5.1628   -0.5279 H       1  UNL1        0.0000
    122 H          -0.2150    3.5543   -0.4872 H       1  UNL1        0.0000
    123 H          -1.7569    3.8186    0.3100 H       1  UNL1        0.0000
    124 H          -0.7466    5.2490   -2.9785 H       1  UNL1        0.0000
    125 H          -1.5117    4.0310   -4.0202 H       1  UNL1        0.0000
    126 H          -0.0665    3.6255   -3.0935 H       1  UNL1        0.0000
    127 O          -2.4947    1.7288    1.0138 O.2     1  UNL1        0.0000
    128 O          -0.9148   -5.1994    0.4216 O.2     1  UNL1        0.0000
    129 O          -4.8942    1.8010   -2.9288 O.2     1  UNL1        0.0000
    130 O          -2.3462   -1.8541   -2.3764 O.2     1  UNL1        0.0000
    131 O           3.0938   -3.3962   -0.9963 O.2     1  UNL1        0.0000
    132 O           6.8782   -1.4885    0.7584 O.2     1  UNL1        0.0000
    133 O           4.0022    3.5167    1.0694 O.2     1  UNL1        0.0000
    134 O           1.3324    6.2695   -1.4772 O.2     1  UNL1        0.0000
@<TRIPOS>BOND
     1     1     9    1
     2     2    12    1
     3     2     8    1
     4     2    10    1
     5     2     1    1
     6     3    61    1
     7     3    11    1
     8     4    35    1
     9     4     7    1
    10     5    74    1
    11     5    13    1
    12     6    48    1
    13     6     9    1
    14     7     1    1
    15     8     4    1
    16    10     6    1
    17    11     1    1
    18    12     3    1
    19    13     1    1
    20    14     2    1
    21    14     5    1
    22    15    43   am
    23    15    36   am
    24    16    56   am
    25    16    49   am
    26    17    69   am
    27    18    75   am
    28    22    41    1
    29    26    54    1
    30    27    64    1
    31    34    80    1
    32    35    87    1
    33    35    15    1
    34    36   133    2
    35    36    37    1
    36    37    38   ar
    37    38    39   ar
    38    38    19    1
    39    39    20    1
    40    40    39   ar
    41    40    21    1
    42    41    40   ar
    43    42    41   ar
    44    42    37   ar
    45    43    42    1
    46    44    35    1
    47    44    45    1
    48    44    47    1
    49    45    89    1
    50    46    44    1
    51    47    95    1
    52    48    97    1
    53    48    16    1
    54    49   132    2
    55    49    50    1
    56    50    51   ar
    57    51    23    1
    58    51    52   ar
    59    52    24    1
    60    53    52   ar
    61    53    25    1
    62    54    53   ar
    63    55    50   ar
    64    55    54   ar
    65    56    55    1
    66    57    60    1
    67    57    48    1
    68    58   100    1
    69    58    57    1
    70    59   102    1
    71    59    57    1
    72    60   106    1
    73    60   105    1
    74    61    17    1
    75    61   107    1
    76    62    17   am
    77    62    63    1
    78    63    68   ar
    79    64    63   ar
    80    64    65   ar
    81    65    28    1
    82    65    66   ar
    83    66    29    1
    84    67    66   ar
    85    67    30    1
    86    68    67   ar
    87    69    68    1
    88    69   128    2
    89    70    72    1
    90    70    61    1
    91    71    70    1
    92    71   109    1
    93    72   112    1
    94    72   113    1
    95    73   115    1
    96    73    70    1
    97    74   117    1
    98    74    83    1
    99    74    18    1
   100    75    76    1
   101    75   127    2
   102    76    77   ar
   103    77    78   ar
   104    77    31    1
   105    78    32    1
   106    79    33    1
   107    79    78   ar
   108    80    81   ar
   109    80    79   ar
   110    81    76   ar
   111    82    18   am
   112    82    81    1
   113    83    85    1
   114    84   118    1
   115    84    83    1
   116    84   119    1
   117    85   121    1
   118    85   122    1
   119    85   123    1
   120    86   124    1
   121    86    83    1
   122    88    45    1
   123    90    45    1
   124    91    46    1
   125    92    46    1
   126    93    46    1
   127    94    47    1
   128    96    47    1
   129    98    58    1
   130    99    58    1
   131   101    59    1
   132   103    59    1
   133   104    60    1
   134   108    71    1
   135   110    71    1
   136   111    72    1
   137   114    73    1
   138   116    73    1
   139   120    84    1
   140   125    86    1
   141   126    86    1
   142   129    82    2
   143   130    62    2
   144   131    56    2
   145   134    43    2
