@<TRIPOS>MOLECULE
RhRh_S-TCPTTL4_fromcarbene_20kcal_15_sp
 134 145 0 0 0
SMALL
GASTEIGER

@<TRIPOS>ATOM
      1 Rh          0.0005    0.0010    3.1218 Rh      1  UNL1        0.0000
      2 Rh          0.0000    0.0000    0.7328 Rh      1  UNL1        0.0000
      3 C           1.3156    2.2697    1.9378 C.3     1  UNL1        0.0000
      4 C          -1.3150   -2.2688    1.9402 C.3     1  UNL1        0.0000
      5 C           2.2695   -1.3151    1.9392 C.3     1  UNL1        0.0000
      6 C          -2.2692    1.3156    1.9392 C.3     1  UNL1        0.0000
      7 O          -1.0791   -1.7350    3.0631 O.3     1  UNL1        0.0000
      8 O          -1.0376   -1.7755    0.8025 O.3     1  UNL1        0.0000
      9 O          -1.7354    1.0804    3.0623 O.3     1  UNL1        0.0000
     10 O          -1.7758    1.0378    0.8016 O.3     1  UNL1        0.0000
     11 O           1.0802    1.7367    3.0612 O.3     1  UNL1        0.0000
     12 O           1.0379    1.7757    0.8005 O.3     1  UNL1        0.0000
     13 O           1.7363   -1.0787    3.0624 O.3     1  UNL1        0.0000
     14 O           1.7757   -1.0378    0.8017 O.3     1  UNL1        0.0000
     15 N          -1.3386   -4.4580    0.9194 N.am    1  UNL1        0.0000
     16 N          -4.4588    1.3389    0.9195 N.am    1  UNL1        0.0000
     17 N           1.3386    4.4587    0.9168 N.am    1  UNL1        0.0000
     18 N           4.4588   -1.3400    0.9188 N.am    1  UNL1        0.0000
     19 CL         -2.6450   -6.9905   -2.7101 Cl      1  UNL1        0.0000
     20 CL         -0.0060   -7.8567   -4.2116 Cl      1  UNL1        0.0000
     21 CL          2.7882   -6.9091   -3.1556 Cl      1  UNL1        0.0000
     22 CL          2.9806   -5.0828   -0.5964 Cl      1  UNL1        0.0000
     23 CL         -6.9963    2.6410   -2.7081 Cl      1  UNL1        0.0000
     24 CL         -7.8641    0.0003   -4.2056 Cl      1  UNL1        0.0000
     25 CL         -6.9157   -2.7926   -3.1472 Cl      1  UNL1        0.0000
     26 CL         -5.0868   -2.9821   -0.5896 Cl      1  UNL1        0.0000
     27 CL          2.6399    6.9920   -2.7140 Cl      1  UNL1        0.0000
     28 CL         -0.0011    7.8595   -4.2110 Cl      1  UNL1        0.0000
     29 CL         -2.7939    6.9124   -3.1508 Cl      1  UNL1        0.0000
     30 CL         -2.9827    5.0849   -0.5924 Cl      1  UNL1        0.0000
     31 CL          5.0930    2.9807   -0.5890 Cl      1  UNL1        0.0000
     32 CL          6.9204    2.7893   -3.1473 Cl      1  UNL1        0.0000
     33 CL          7.8642   -0.0047   -4.2070 Cl      1  UNL1        0.0000
     34 CL          6.9931   -2.6446   -2.7100 Cl      1  UNL1        0.0000
     35 C          -2.0266   -3.6275    1.9114 C.3     1  UNL1        0.0000
     36 C          -2.0278   -5.1383   -0.0921 C.2     1  UNL1        0.0000
     37 C          -0.9746   -5.7187   -0.9816 C.ar    1  UNL1        0.0000
     38 C          -1.0942   -6.4982   -2.1214 C.ar    1  UNL1        0.0000
     39 C           0.0919   -6.8761   -2.7889 C.ar    1  UNL1        0.0000
     40 C           1.3478   -6.4541   -2.3113 C.ar    1  UNL1        0.0000
     41 C           1.4481   -5.6551   -1.1495 C.ar    1  UNL1        0.0000
     42 C           0.2725   -5.3138   -0.4978 C.ar    1  UNL1        0.0000
     43 C           0.0500   -4.5042    0.7424 C.2     1  UNL1        0.0000
     44 C          -2.2730   -4.3431    3.2720 C.3     1  UNL1        0.0000
     45 C          -2.9588   -5.6925    2.9840 C.3     1  UNL1        0.0000
     46 C          -0.9720   -4.6039    4.0488 C.3     1  UNL1        0.0000
     47 C          -3.2419   -3.4820    4.1066 C.3     1  UNL1        0.0000
     48 C          -3.6274    2.0280    1.9099 C.3     1  UNL1        0.0000
     49 C          -5.1411    2.0270   -0.0915 C.2     1  UNL1        0.0000
     50 C          -5.7221    0.9728   -0.9794 C.ar    1  UNL1        0.0000
     51 C          -6.5031    1.0910   -2.1183 C.ar    1  UNL1        0.0000
     52 C          -6.8819   -0.0959   -2.7839 C.ar    1  UNL1        0.0000
     53 C          -6.4594   -1.3512   -2.3053 C.ar    1  UNL1        0.0000
     54 C          -5.6590   -1.4502   -1.1443 C.ar    1  UNL1        0.0000
     55 C          -5.3165   -0.2738   -0.4947 C.ar    1  UNL1        0.0000
     56 C          -4.5049   -0.0499    0.7439 C.2     1  UNL1        0.0000
     57 C          -4.3424    2.2769    3.2704 C.3     1  UNL1        0.0000
     58 C          -3.4805    3.2462    4.1036 C.3     1  UNL1        0.0000
     59 C          -5.6914    2.9634    2.9818 C.3     1  UNL1        0.0000
     60 C          -4.6040    0.9772    4.0492 C.3     1  UNL1        0.0000
     61 C           2.0282    3.6279    1.9074 C.3     1  UNL1        0.0000
     62 C           2.0264    5.1393   -0.0956 C.2     1  UNL1        0.0000
     63 C           0.9720    5.7202   -0.9833 C.ar    1  UNL1        0.0000
     64 C           1.0900    6.4999   -2.1230 C.ar    1  UNL1        0.0000
     65 C          -0.0971    6.8785   -2.7885 C.ar    1  UNL1        0.0000
     66 C          -1.3523    6.4567   -2.3090 C.ar    1  UNL1        0.0000
     67 C          -1.4510    5.6574   -1.1473 C.ar    1  UNL1        0.0000
     68 C          -0.2745    5.3154   -0.4976 C.ar    1  UNL1        0.0000
     69 C          -0.0502    4.5050    0.7418 C.2     1  UNL1        0.0000
     70 C           2.2783    4.3435    3.2674 C.3     1  UNL1        0.0000
     71 C           2.9640    5.6926    2.9779 C.3     1  UNL1        0.0000
     72 C           0.9794    4.6050    4.0477 C.3     1  UNL1        0.0000
     73 C           3.2490    3.4822    4.0996 C.3     1  UNL1        0.0000
     74 C           3.6273   -2.0284    1.9097 C.3     1  UNL1        0.0000
     75 C           4.5066    0.0488    0.7436 C.2     1  UNL1        0.0000
     76 C           5.3185    0.2720   -0.4950 C.ar    1  UNL1        0.0000
     77 C           5.6628    1.4481   -1.1442 C.ar    1  UNL1        0.0000
     78 C           6.4625    1.3483   -2.3055 C.ar    1  UNL1        0.0000
     79 C           6.8828    0.0925   -2.7849 C.ar    1  UNL1        0.0000
     80 C           6.5025   -1.0940   -2.1195 C.ar    1  UNL1        0.0000
     81 C           5.7220   -0.9750   -0.9803 C.ar    1  UNL1        0.0000
     82 C           5.1398   -2.0287   -0.0926 C.2     1  UNL1        0.0000
     83 C           4.3429   -2.2770    3.2700 C.3     1  UNL1        0.0000
     84 C           5.6906   -2.9658    2.9811 C.3     1  UNL1        0.0000
     85 C           4.6074   -0.9767    4.0470 C.3     1  UNL1        0.0000
     86 C           3.4803   -3.2441    4.1049 C.3     1  UNL1        0.0000
     87 H          -3.0057   -3.4169    1.4686 H       1  UNL1        0.0000
     88 H          -2.2970   -6.3751    2.4429 H       1  UNL1        0.0000
     89 H          -3.8703   -5.5668    2.3937 H       1  UNL1        0.0000
     90 H          -3.2239   -6.1731    3.9302 H       1  UNL1        0.0000
     91 H          -0.2900   -5.2440    3.4831 H       1  UNL1        0.0000
     92 H          -1.2082   -5.1162    4.9872 H       1  UNL1        0.0000
     93 H          -0.4494   -3.6760    4.2815 H       1  UNL1        0.0000
     94 H          -3.5228   -4.0257    5.0140 H       1  UNL1        0.0000
     95 H          -4.1577   -3.2674    3.5456 H       1  UNL1        0.0000
     96 H          -2.7912   -2.5334    4.3966 H       1  UNL1        0.0000
     97 H          -3.4167    3.0063    1.4655 H       1  UNL1        0.0000
     98 H          -4.0238    3.5285    5.0108 H       1  UNL1        0.0000
     99 H          -3.2655    4.1612    3.5415 H       1  UNL1        0.0000
    100 H          -2.5321    2.7954    4.3939 H       1  UNL1        0.0000
    101 H          -6.1717    3.2301    3.9277 H       1  UNL1        0.0000
    102 H          -6.3746    2.3013    2.4417 H       1  UNL1        0.0000
    103 H          -5.5650    3.8740    2.3903 H       1  UNL1        0.0000
    104 H          -5.1156    1.2153    4.9876 H       1  UNL1        0.0000
    105 H          -3.6766    0.4541    4.2823 H       1  UNL1        0.0000
    106 H          -5.2452    0.2950    3.4849 H       1  UNL1        0.0000
    107 H           3.0061    3.4165    1.4625 H       1  UNL1        0.0000
    108 H           3.2328    6.1725    3.9235 H       1  UNL1        0.0000
    109 H           2.3007    6.3761    2.4397 H       1  UNL1        0.0000
    110 H           3.8733    5.5666    2.3843 H       1  UNL1        0.0000
    111 H           1.2184    5.1172    4.9855 H       1  UNL1        0.0000
    112 H           0.4569    3.6775    4.2820 H       1  UNL1        0.0000
    113 H           0.2963    5.2456    3.4839 H       1  UNL1        0.0000
    114 H           3.5328    4.0262    5.0060 H       1  UNL1        0.0000
    115 H           4.1631    3.2669    3.5361 H       1  UNL1        0.0000
    116 H           2.7988    2.5339    4.3913 H       1  UNL1        0.0000
    117 H           3.4159   -3.0067    1.4660 H       1  UNL1        0.0000
    118 H           6.1711   -3.2324    3.9271 H       1  UNL1        0.0000
    119 H           6.3745   -2.3054    2.4400 H       1  UNL1        0.0000
    120 H           5.5625   -3.8767    2.3905 H       1  UNL1        0.0000
    121 H           5.1201   -1.2143    4.9848 H       1  UNL1        0.0000
    122 H           3.6810   -0.4521    4.2808 H       1  UNL1        0.0000
    123 H           5.2485   -0.2960    3.4808 H       1  UNL1        0.0000
    124 H           4.0242   -3.5268    5.0117 H       1  UNL1        0.0000
    125 H           3.2630   -4.1591    3.5437 H       1  UNL1        0.0000
    126 H           2.5330   -2.7914    4.3960 H       1  UNL1        0.0000
    127 O           3.9878    0.8665    1.4746 O.2     1  UNL1        0.0000
    128 O          -0.8673    3.9854    1.4730 O.2     1  UNL1        0.0000
    129 O           5.2149   -3.2342   -0.1938 O.2     1  UNL1        0.0000
    130 O           3.2319    5.2144   -0.1978 O.2     1  UNL1        0.0000
    131 O          -3.9844   -0.8672    1.4742 O.2     1  UNL1        0.0000
    132 O          -5.2181    3.2324   -0.1921 O.2     1  UNL1        0.0000
    133 O          -3.2334   -5.2143   -0.1920 O.2     1  UNL1        0.0000
    134 O           0.8682   -3.9855    1.4731 O.2     1  UNL1        0.0000
@<TRIPOS>BOND
     1     2    12    1
     2     2    10    1
     3     2    14    1
     4     2     8    1
     5     2     1    1
     6     3    61    1
     7     3    11    1
     8     4    35    1
     9     4     7    1
    10     5    74    1
    11     5    13    1
    12     6    48    1
    13     6     9    1
    14     7     1    1
    15     8     4    1
    16     9     1    1
    17    10     6    1
    18    11     1    1
    19    12     3    1
    20    13     1    1
    21    14     5    1
    22    15    35    1
    23    16    48    1
    24    17    61    1
    25    18    74    1
    26    19    38    1
    27    20    39    1
    28    21    40    1
    29    23    51    1
    30    24    52    1
    31    25    53    1
    32    27    64    1
    33    28    65    1
    34    29    66    1
    35    32    78    1
    36    33    79    1
    37    34    80    1
    38    35    87    1
    39    35    44    1
    40    36    15   am
    41    37    42   ar
    42    37    36    1
    43    38    37   ar
    44    39    40   ar
    45    39    38   ar
    46    40    41   ar
    47    41    22    1
    48    41    42   ar
    49    42    43    1
    50    43    15   am
    51    43   134    2
    52    44    46    1
    53    44    47    1
    54    45    44    1
    55    45    90    1
    56    46    93    1
    57    46    92    1
    58    47    96    1
    59    47    94    1
    60    48    97    1
    61    48    57    1
    62    49    16   am
    63    50    55   ar
    64    50    49    1
    65    51    50   ar
    66    52    53   ar
    67    52    51   ar
    68    53    54   ar
    69    54    26    1
    70    54    55   ar
    71    55    56    1
    72    56    16   am
    73    56   131    2
    74    57    60    1
    75    57    58    1
    76    58   100    1
    77    58    98    1
    78    59    57    1
    79    59   101    1
    80    60   105    1
    81    60   104    1
    82    61   107    1
    83    61    70    1
    84    62    17   am
    85    63    68   ar
    86    63    62    1
    87    64    63   ar
    88    65    66   ar
    89    65    64   ar
    90    66    67   ar
    91    67    30    1
    92    67    68   ar
    93    68    69    1
    94    69    17   am
    95    69   128    2
    96    70    72    1
    97    70    73    1
    98    71    70    1
    99    71   108    1
   100    72   112    1
   101    72   111    1
   102    73   116    1
   103    73   114    1
   104    74   117    1
   105    74    83    1
   106    75    18   am
   107    75   127    2
   108    76    75    1
   109    77    31    1
   110    77    76   ar
   111    78    77   ar
   112    79    78   ar
   113    79    80   ar
   114    80    81   ar
   115    81    76   ar
   116    81    82    1
   117    82    18   am
   118    83    85    1
   119    83    86    1
   120    84    83    1
   121    84   118    1
   122    85   122    1
   123    85   121    1
   124    86   126    1
   125    86   124    1
   126    88    45    1
   127    89    45    1
   128    91    46    1
   129    95    47    1
   130    99    58    1
   131   102    59    1
   132   103    59    1
   133   106    60    1
   134   109    71    1
   135   110    71    1
   136   113    72    1
   137   115    73    1
   138   119    84    1
   139   120    84    1
   140   123    85    1
   141   125    86    1
   142   129    82    2
   143   130    62    2
   144   132    49    2
   145   133    36    2
