@<TRIPOS>MOLECULE
RhRh_ACyPentyl4_20_sp
 126 141 0 0 0
SMALL
GASTEIGER

@<TRIPOS>ATOM
      1 Rh          0.2459    0.1172    0.5753 Rh      1  UNL1        0.0000
      2 Rh         -0.9019   -0.0705   -1.5149 Rh      1  UNL1        0.0000
      3 C          -1.5041    2.3397   -0.0492 C.3     1  UNL1        0.0000
      4 C           1.6582    1.2411   -1.6735 C.3     1  UNL1        0.0000
      5 C           0.7961   -2.3202   -0.8768 C.3     1  UNL1        0.0000
      6 C          -2.3284   -1.1654    0.7621 C.3     1  UNL1        0.0000
      7 O          -0.7173    1.9122    0.8530 O.3     1  UNL1        0.0000
      8 O          -1.7859    1.7462   -1.1362 O.3     1  UNL1        0.0000
      9 O          -1.3317   -0.8442    1.4793 O.3     1  UNL1        0.0000
     10 O          -2.4215   -1.0118   -0.4973 O.3     1  UNL1        0.0000
     11 O           0.0237   -1.8839   -1.7848 O.3     1  UNL1        0.0000
     12 O           1.1260   -1.7006    0.1830 O.3     1  UNL1        0.0000
     13 O           0.6750    0.9102   -2.4034 O.3     1  UNL1        0.0000
     14 O           1.7461    1.0928   -0.4136 O.3     1  UNL1        0.0000
     15 N          -1.4559    4.3628    1.2757 N.am    1  UNL1        0.0000
     16 N          -4.6676   -1.7440    0.5594 N.am    1  UNL1        0.0000
     17 N           1.8338   -4.2003    0.2375 N.am    1  UNL1        0.0000
     18 N           4.0536    1.4739   -1.7697 N.am    1  UNL1        0.0000
     19 C          -2.1936    3.6869    0.2024 C.3     1  UNL1        0.0000
     20 C          -3.6953    3.4616    0.5352 C.3     1  UNL1        0.0000
     21 C          -4.3682    3.2604   -0.8282 C.3     1  UNL1        0.0000
     22 C          -3.5536    4.1104   -1.8329 C.3     1  UNL1        0.0000
     23 C          -2.2645    4.5404   -1.0948 C.3     1  UNL1        0.0000
     24 C          -0.1524    4.8567    1.0527 C.2     1  UNL1        0.0000
     25 C           0.4254    5.1428    2.3912 C.ar    1  UNL1        0.0000
     26 C           1.6491    5.6954    2.7378 C.ar    1  UNL1        0.0000
     27 C           1.9337    5.8142    4.1033 C.ar    1  UNL1        0.0000
     28 C           1.0168    5.3875    5.0733 C.ar    1  UNL1        0.0000
     29 C          -0.2135    4.8270    4.7096 C.ar    1  UNL1        0.0000
     30 C          -0.4849    4.7164    3.3545 C.ar    1  UNL1        0.0000
     31 C          -1.6728    4.1444    2.6599 C.2     1  UNL1        0.0000
     32 C          -3.5292   -1.7919    1.4851 C.3     1  UNL1        0.0000
     33 C          -3.1904   -3.2298    1.9651 C.3     1  UNL1        0.0000
     34 C          -2.3916   -3.0280    3.2587 C.3     1  UNL1        0.0000
     35 C          -2.9365   -1.7271    3.8962 C.3     1  UNL1        0.0000
     36 C          -3.8221   -1.0533    2.8228 C.3     1  UNL1        0.0000
     37 C          -4.9179   -2.7083   -0.4500 C.2     1  UNL1        0.0000
     38 C          -5.8814   -2.0732   -1.3933 C.ar    1  UNL1        0.0000
     39 C          -6.4982   -2.5927   -2.5211 C.ar    1  UNL1        0.0000
     40 C          -7.3372   -1.7368   -3.2447 C.ar    1  UNL1        0.0000
     41 C          -7.5394   -0.4096   -2.8428 C.ar    1  UNL1        0.0000
     42 C          -6.9103    0.1039   -1.7026 C.ar    1  UNL1        0.0000
     43 C          -6.0850   -0.7554   -0.9930 C.ar    1  UNL1        0.0000
     44 C          -5.2607   -0.5097    0.2179 C.2     1  UNL1        0.0000
     45 C           1.3526   -3.7419   -1.0725 C.3     1  UNL1        0.0000
     46 C           0.2582   -4.6792   -1.6601 C.3     1  UNL1        0.0000
     47 C           0.3356   -4.5199   -3.1970 C.3     1  UNL1        0.0000
     48 C           1.6478   -3.7498   -3.4881 C.3     1  UNL1        0.0000
     49 C           2.4414   -3.7779   -2.1766 C.3     1  UNL1        0.0000
     50 C           0.9164   -4.3810    1.2969 C.2     1  UNL1        0.0000
     51 C           1.7194   -4.4872    2.5414 C.ar    1  UNL1        0.0000
     52 C           1.3200   -4.7082    3.8506 C.ar    1  UNL1        0.0000
     53 C           2.3206   -4.7257    4.8299 C.ar    1  UNL1        0.0000
     54 C           3.6662   -4.5278    4.4934 C.ar    1  UNL1        0.0000
     55 C           4.0553   -4.3043    3.1669 C.ar    1  UNL1        0.0000
     56 C           3.0562   -4.2886    2.2063 C.ar    1  UNL1        0.0000
     57 C           3.1447   -4.0491    0.7375 C.2     1  UNL1        0.0000
     58 C           2.8078    2.0135   -2.3311 C.3     1  UNL1        0.0000
     59 C           2.5524    3.5249   -1.9926 C.3     1  UNL1        0.0000
     60 C           2.7534    4.2685   -3.3165 C.3     1  UNL1        0.0000
     61 C           2.2256    3.2721   -4.3584 C.3     1  UNL1        0.0000
     62 C           2.8043    1.9317   -3.8834 C.3     1  UNL1        0.0000
     63 C           5.2330    2.1604   -1.4269 C.2     1  UNL1        0.0000
     64 C           6.1676    1.1137   -0.9129 C.ar    1  UNL1        0.0000
     65 C           7.4445    1.2429   -0.3922 C.ar    1  UNL1        0.0000
     66 C           8.0840    0.0714    0.0353 C.ar    1  UNL1        0.0000
     67 C           7.4521   -1.1743   -0.0593 C.ar    1  UNL1        0.0000
     68 C           6.1623   -1.2988   -0.5934 C.ar    1  UNL1        0.0000
     69 C           5.5459   -0.1313   -1.0179 C.ar    1  UNL1        0.0000
     70 C           4.2103    0.0844   -1.6271 C.2     1  UNL1        0.0000
     71 H          -3.8687    2.6375    1.2228 H       1  UNL1        0.0000
     72 H          -4.0520    4.3765    1.0178 H       1  UNL1        0.0000
     73 H          -5.4236    3.5449   -0.7863 H       1  UNL1        0.0000
     74 H          -4.3285    2.2050   -1.1006 H       1  UNL1        0.0000
     75 H          -4.1101    4.9925   -2.1637 H       1  UNL1        0.0000
     76 H          -3.3118    3.5269   -2.7239 H       1  UNL1        0.0000
     77 H          -2.3255    5.5859   -0.7797 H       1  UNL1        0.0000
     78 H          -1.3660    4.4384   -1.6997 H       1  UNL1        0.0000
     79 H           2.3516    6.0140    1.9755 H       1  UNL1        0.0000
     80 H           2.8810    6.2399    4.4184 H       1  UNL1        0.0000
     81 H           1.2693    5.4904    6.1239 H       1  UNL1        0.0000
     82 H          -0.9294    4.4851    5.4491 H       1  UNL1        0.0000
     83 H          -4.1445   -3.7266    2.1661 H       1  UNL1        0.0000
     84 H          -2.6596   -3.8189    1.2217 H       1  UNL1        0.0000
     85 H          -1.3340   -2.9192    3.0151 H       1  UNL1        0.0000
     86 H          -2.4891   -3.8975    3.9160 H       1  UNL1        0.0000
     87 H          -3.5247   -1.9303    4.7962 H       1  UNL1        0.0000
     88 H          -2.1164   -1.0673    4.1872 H       1  UNL1        0.0000
     89 H          -3.6603    0.0196    2.7439 H       1  UNL1        0.0000
     90 H          -4.8830   -1.2065    3.0397 H       1  UNL1        0.0000
     91 H          -7.0496    1.1310   -1.3833 H       1  UNL1        0.0000
     92 H          -0.7274   -4.4637   -1.2534 H       1  UNL1        0.0000
     93 H           0.5226   -5.6971   -1.3587 H       1  UNL1        0.0000
     94 H           0.3292   -5.5022   -3.6790 H       1  UNL1        0.0000
     95 H          -0.5288   -3.9682   -3.5717 H       1  UNL1        0.0000
     96 H           2.2248   -4.1879   -4.3075 H       1  UNL1        0.0000
     97 H           1.4261   -2.7151   -3.7592 H       1  UNL1        0.0000
     98 H           2.9718   -4.7284   -2.0653 H       1  UNL1        0.0000
     99 H           3.1630   -2.9713   -2.0854 H       1  UNL1        0.0000
    100 H           0.2736   -4.8519    4.0964 H       1  UNL1        0.0000
    101 H           2.0517   -4.8918    5.8682 H       1  UNL1        0.0000
    102 H           4.4172   -4.5442    5.2768 H       1  UNL1        0.0000
    103 H           5.0922   -4.1422    2.8933 H       1  UNL1        0.0000
    104 H           3.1858    3.8760   -1.1823 H       1  UNL1        0.0000
    105 H           1.5172    3.6373   -1.6627 H       1  UNL1        0.0000
    106 H           2.2330    5.2302   -3.3297 H       1  UNL1        0.0000
    107 H           3.8213    4.4550   -3.4747 H       1  UNL1        0.0000
    108 H           2.5192    3.5130   -5.3843 H       1  UNL1        0.0000
    109 H           1.1304    3.2380   -4.3225 H       1  UNL1        0.0000
    110 H           2.2578    1.0579   -4.2376 H       1  UNL1        0.0000
    111 H           3.8447    1.8418   -4.2106 H       1  UNL1        0.0000
    112 H           5.6546   -2.2550   -0.6510 H       1  UNL1        0.0000
    113 O           3.3800   -0.7328   -1.9788 O.2     1  UNL1        0.0000
    114 O           5.4464    3.3509   -1.5450 O.2     1  UNL1        0.0000
    115 O           4.1467   -3.7882    0.1022 O.2     1  UNL1        0.0000
    116 O          -0.2917   -4.4182    1.1813 O.2     1  UNL1        0.0000
    117 O          -5.0958    0.5434    0.8021 O.2     1  UNL1        0.0000
    118 O          -4.4390   -3.8191   -0.5271 O.2     1  UNL1        0.0000
    119 O          -2.6293    3.6002    3.1680 O.2     1  UNL1        0.0000
    120 O           0.3801    4.9943   -0.0316 O.2     1  UNL1        0.0000
    121 H          -6.3253   -3.6191   -2.8258 H       1  UNL1        0.0000
    122 H          -7.8368   -2.1033   -4.1358 H       1  UNL1        0.0000
    123 H          -8.1918    0.2294   -3.4293 H       1  UNL1        0.0000
    124 H           7.9199    2.2150   -0.3189 H       1  UNL1        0.0000
    125 H           9.0848    0.1300    0.4517 H       1  UNL1        0.0000
    126 H           7.9715   -2.0613    0.2894 H       1  UNL1        0.0000
@<TRIPOS>BOND
     1     1     7    1
     2     1     9    1
     3     2     8    1
     4     2    10    1
     5     2     1    1
     6     3    19    1
     7     3     7    1
     8     4    14    1
     9     5    12    1
    10     6     9    1
    11     6    32    1
    12     8     3    1
    13    10     6    1
    14    11     2    1
    15    11     5    1
    16    12     1    1
    17    13     4    1
    18    13     2    1
    19    14     1    1
    20    15    31   am
    21    16    32    1
    22    17    57   am
    23    17    50   am
    24    18    70   am
    25    18    63   am
    26    19    20    1
    27    19    15    1
    28    20    72    1
    29    20    71    1
    30    21    73    1
    31    21    20    1
    32    22    23    1
    33    22    21    1
    34    23    77    1
    35    23    19    1
    36    24    15   am
    37    24    25    1
    38    25    26   ar
    39    25    30   ar
    40    26    27   ar
    41    27    80    1
    42    27    28   ar
    43    28    81    1
    44    29    28   ar
    45    29    82    1
    46    30    29   ar
    47    31   119    2
    48    31    30    1
    49    32    33    1
    50    32    36    1
    51    33    83    1
    52    33    34    1
    53    34    35    1
    54    34    86    1
    55    35    88    1
    56    35    87    1
    57    36    90    1
    58    36    35    1
    59    37    16   am
    60    38    43   ar
    61    38    37    1
    62    39    38   ar
    63    40    41   ar
    64    40    39   ar
    65    41    42   ar
    66    42    91    1
    67    42    43   ar
    68    43    44    1
    69    44    16   am
    70    44   117    2
    71    45     5    1
    72    45    17    1
    73    46    93    1
    74    46    92    1
    75    46    45    1
    76    47    46    1
    77    48    47    1
    78    48    49    1
    79    49    99    1
    80    49    98    1
    81    49    45    1
    82    50    51    1
    83    51    52   ar
    84    52   100    1
    85    52    53   ar
    86    53   101    1
    87    54    53   ar
    88    54   102    1
    89    55    54   ar
    90    56    51   ar
    91    56    55   ar
    92    57    56    1
    93    58    59    1
    94    58    18    1
    95    58     4    1
    96    59   105    1
    97    59   104    1
    98    60    59    1
    99    61   109    1
   100    61    62    1
   101    61    60    1
   102    62    58    1
   103    63    64    1
   104    64    65   ar
   105    65   124    1
   106    65    66   ar
   107    66   125    1
   108    67    66   ar
   109    67   126    1
   110    68    67   ar
   111    69    64   ar
   112    69    68   ar
   113    70    69    1
   114    74    21    1
   115    75    22    1
   116    76    22    1
   117    78    23    1
   118    79    26    1
   119    84    33    1
   120    85    34    1
   121    89    36    1
   122    94    47    1
   123    95    47    1
   124    96    48    1
   125    97    48    1
   126   103    55    1
   127   106    60    1
   128   107    60    1
   129   108    61    1
   130   110    62    1
   131   111    62    1
   132   112    68    1
   133   113    70    2
   134   114    63    2
   135   115    57    2
   136   116    50    2
   137   118    37    2
   138   120    24    2
   139   121    39    1
   140   122    40    1
   141   123    41    1
