@<TRIPOS>MOLECULE
RhRh_MeMePh-O2C3_20kcal_1_sp
 94 101 0 0 0
SMALL
GASTEIGER

@<TRIPOS>ATOM
      1 Rh          0.4438   -0.7728   -1.3014 Rh      1  UNL1        0.0000
      2 Rh          0.1114   -0.6381    1.0579 Rh      1  UNL1        0.0000
      3 C           1.7719    1.4640   -0.0422 C.3     1  UNL1        0.0000
      4 C           2.4380   -2.1647    0.2634 C.3     1  UNL1        0.0000
      5 C          -1.3113   -2.8059   -0.2164 C.3     1  UNL1        0.0000
      6 C          -1.8324    0.8192   -0.5135 C.3     1  UNL1        0.0000
      7 O          -1.1471    0.5027   -1.5395 O.3     1  UNL1        0.0000
      8 O          -1.5768    0.4618    0.6806 O.3     1  UNL1        0.0000
      9 O          -0.8649   -2.3629   -1.3208 O.3     1  UNL1        0.0000
     10 O          -1.0028   -2.3610    0.9361 O.3     1  UNL1        0.0000
     11 O           2.0470   -2.0085   -0.9363 O.3     1  UNL1        0.0000
     12 O           1.8286   -1.7511    1.3016 O.3     1  UNL1        0.0000
     13 O           1.7025    0.8426   -1.1523 O.3     1  UNL1        0.0000
     14 O           1.2306    1.0888    1.0450 O.3     1  UNL1        0.0000
     15 C          -3.1109    1.6350   -0.7354 C.3     1  UNL1        0.0000
     16 C          -3.2582    2.6542    0.3965 C.ar    1  UNL1        0.0000
     17 C          -2.1918    3.5227    0.6714 C.ar    1  UNL1        0.0000
     18 C          -2.2949    4.4884    1.6672 C.ar    1  UNL1        0.0000
     19 C          -3.4731    4.6121    2.4068 C.ar    1  UNL1        0.0000
     20 C          -4.5400    3.7577    2.1398 C.ar    1  UNL1        0.0000
     21 C          -4.4314    2.7847    1.1431 C.ar    1  UNL1        0.0000
     22 C          -2.3383   -3.9482   -0.2687 C.3     1  UNL1        0.0000
     23 C          -3.7178   -3.3001   -0.0271 C.ar    1  UNL1        0.0000
     24 C          -4.7187   -3.3022   -1.0049 C.ar    1  UNL1        0.0000
     25 C          -5.9710   -2.7374   -0.7521 C.ar    1  UNL1        0.0000
     26 C          -6.2457   -2.1589    0.4845 C.ar    1  UNL1        0.0000
     27 C          -5.2508   -2.1371    1.4634 C.ar    1  UNL1        0.0000
     28 C          -4.0007   -2.6946    1.2075 C.ar    1  UNL1        0.0000
     29 C           3.7966   -2.8499    0.4695 C.3     1  UNL1        0.0000
     30 C           4.8266   -1.7021    0.4361 C.ar    1  UNL1        0.0000
     31 C           5.8192   -1.6194   -0.5456 C.ar    1  UNL1        0.0000
     32 C           6.7479   -0.5765   -0.5404 C.ar    1  UNL1        0.0000
     33 C           6.7015    0.4027    0.4491 C.ar    1  UNL1        0.0000
     34 C           5.7091    0.3360    1.4289 C.ar    1  UNL1        0.0000
     35 C           4.7760   -0.6980    1.4159 C.ar    1  UNL1        0.0000
     36 C           2.5271    2.8004   -0.0357 C.3     1  UNL1        0.0000
     37 C           1.5230    3.8626   -0.5296 C.ar    1  UNL1        0.0000
     38 C           1.2322    5.0107    0.2163 C.ar    1  UNL1        0.0000
     39 C           0.3496    5.9778   -0.2697 C.ar    1  UNL1        0.0000
     40 C          -0.2658    5.8118   -1.5080 C.ar    1  UNL1        0.0000
     41 C           0.0129    4.6696   -2.2594 C.ar    1  UNL1        0.0000
     42 C           0.8936    3.7049   -1.7747 C.ar    1  UNL1        0.0000
     43 C           3.8401   -3.5596    1.8373 C.3     1  UNL1        0.0000
     44 C           4.0174   -3.8867   -0.6417 C.3     1  UNL1        0.0000
     45 C           3.0438    3.0825    1.3818 C.3     1  UNL1        0.0000
     46 C           3.7236    2.7257   -1.0092 C.3     1  UNL1        0.0000
     47 C          -3.0561    2.3734   -2.0867 C.3     1  UNL1        0.0000
     48 C          -4.2470    0.5903   -0.7703 C.3     1  UNL1        0.0000
     49 C          -2.0293   -4.9624    0.8548 C.3     1  UNL1        0.0000
     50 C          -2.2443   -4.6644   -1.6230 C.3     1  UNL1        0.0000
     51 H          -1.2664    3.4389    0.1110 H       1  UNL1        0.0000
     52 H          -1.4516    5.1429    1.8608 H       1  UNL1        0.0000
     53 H          -3.5558    5.3657    3.1843 H       1  UNL1        0.0000
     54 H          -5.4614    3.8411    2.7088 H       1  UNL1        0.0000
     55 H          -5.2706    2.1240    0.9594 H       1  UNL1        0.0000
     56 H          -4.5344   -3.7495   -1.9736 H       1  UNL1        0.0000
     57 H          -6.7310   -2.7553   -1.5274 H       1  UNL1        0.0000
     58 H          -7.2201   -1.7230    0.6823 H       1  UNL1        0.0000
     59 H          -5.4439   -1.6773    2.4280 H       1  UNL1        0.0000
     60 H          -3.2298   -2.6441    1.9665 H       1  UNL1        0.0000
     61 H           5.8792   -2.3693   -1.3245 H       1  UNL1        0.0000
     62 H           7.5095   -0.5353   -1.3132 H       1  UNL1        0.0000
     63 H           7.4270    1.2102    0.4574 H       1  UNL1        0.0000
     64 H           5.6618    1.0913    2.2073 H       1  UNL1        0.0000
     65 H           3.9929   -0.7205    2.1654 H       1  UNL1        0.0000
     66 H           1.6924    5.1631    1.1846 H       1  UNL1        0.0000
     67 H           0.1413    6.8599    0.3282 H       1  UNL1        0.0000
     68 H          -0.9579    6.5597   -1.8814 H       1  UNL1        0.0000
     69 H          -0.4594    4.5240   -3.2261 H       1  UNL1        0.0000
     70 H           1.0848    2.8129   -2.3592 H       1  UNL1        0.0000
     71 H           4.8288   -4.0033    1.9835 H       1  UNL1        0.0000
     72 H           3.6404   -2.8726    2.6587 H       1  UNL1        0.0000
     73 H           3.0918   -4.3570    1.8765 H       1  UNL1        0.0000
     74 H           3.2519   -4.6647   -0.5767 H       1  UNL1        0.0000
     75 H           3.9528   -3.4388   -1.6334 H       1  UNL1        0.0000
     76 H           4.9944   -4.3635   -0.5233 H       1  UNL1        0.0000
     77 H           3.6190    4.0125    1.3953 H       1  UNL1        0.0000
     78 H           2.2297    3.1524    2.1042 H       1  UNL1        0.0000
     79 H           3.7036    2.2720    1.6948 H       1  UNL1        0.0000
     80 H           3.3990    2.4903   -2.0225 H       1  UNL1        0.0000
     81 H           4.2364    3.6917   -1.0219 H       1  UNL1        0.0000
     82 H           4.4316    1.9569   -0.6879 H       1  UNL1        0.0000
     83 H          -3.9832    2.9379   -2.2211 H       1  UNL1        0.0000
     84 H          -2.2202    3.0740   -2.1201 H       1  UNL1        0.0000
     85 H          -2.9466    1.6657   -2.9111 H       1  UNL1        0.0000
     86 H          -5.1986    1.0713   -1.0129 H       1  UNL1        0.0000
     87 H          -4.0442   -0.1572   -1.5414 H       1  UNL1        0.0000
     88 H          -4.3448    0.0721    0.1836 H       1  UNL1        0.0000
     89 H          -2.7849   -5.7526    0.8478 H       1  UNL1        0.0000
     90 H          -1.0480   -5.4197    0.6938 H       1  UNL1        0.0000
     91 H          -2.0241   -4.4906    1.8365 H       1  UNL1        0.0000
     92 H          -2.9806   -5.4715   -1.6717 H       1  UNL1        0.0000
     93 H          -2.4039   -3.9820   -2.4581 H       1  UNL1        0.0000
     94 H          -1.2498   -5.1015   -1.7413 H       1  UNL1        0.0000
@<TRIPOS>BOND
     1     1    13    1
     2     1    11    1
     3     1     2    1
     4     2    12    1
     5     3    36    1
     6     3    14    1
     7     4    29    1
     8     4    12    1
     9     5    10    1
    10     6     8    1
    11     7     1    1
    12     7     6    1
    13     8     2    1
    14     9     1    1
    15     9     5    1
    16    10     2    1
    17    11     4    1
    18    13     3    1
    19    14     2    1
    20    15     6    1
    21    15    16    1
    22    16    17   ar
    23    16    21   ar
    24    17    18   ar
    25    18    52    1
    26    18    19   ar
    27    19    53    1
    28    20    19   ar
    29    20    54    1
    30    21    20   ar
    31    22     5    1
    32    22    23    1
    33    22    49    1
    34    23    28   ar
    35    24    25   ar
    36    24    23   ar
    37    25    26   ar
    38    26    58    1
    39    26    27   ar
    40    27    59    1
    41    28    27   ar
    42    28    60    1
    43    29    43    1
    44    30    29    1
    45    30    35   ar
    46    31    32   ar
    47    31    30   ar
    48    32    33   ar
    49    33    63    1
    50    33    34   ar
    51    34    64    1
    52    35    34   ar
    53    35    65    1
    54    36    45    1
    55    37    36    1
    56    37    38   ar
    57    38    66    1
    58    39    38   ar
    59    39    67    1
    60    40    39   ar
    61    41    42   ar
    62    41    40   ar
    63    42    37   ar
    64    43    73    1
    65    43    71    1
    66    43    72    1
    67    44    74    1
    68    44    76    1
    69    44    29    1
    70    45    77    1
    71    45    79    1
    72    45    78    1
    73    46    82    1
    74    46    36    1
    75    47    15    1
    76    48    15    1
    77    48    88    1
    78    49    91    1
    79    50    22    1
    80    51    17    1
    81    55    21    1
    82    56    24    1
    83    57    25    1
    84    61    31    1
    85    62    32    1
    86    68    40    1
    87    69    41    1
    88    70    42    1
    89    75    44    1
    90    80    46    1
    91    81    46    1
    92    83    47    1
    93    84    47    1
    94    85    47    1
    95    86    48    1
    96    87    48    1
    97    89    49    1
    98    90    49    1
    99    92    50    1
   100    93    50    1
   101    94    50    1
