@<TRIPOS>MOLECULE
RhRh_ACH4_3_sp
 138 153 0 0 0
SMALL
GASTEIGER

@<TRIPOS>ATOM
      1 Rh          0.5982   -0.7923    1.5048 Rh      1  UNL1        0.0000
      2 Rh          0.1844   -0.0691   -0.7326 Rh      1  UNL1        0.0000
      3 C           2.1082   -2.2092   -0.5008 C.3     1  UNL1        0.0000
      4 C          -1.5098   -2.2353    0.1215 C.3     1  UNL1        0.0000
      5 C          -1.4111    1.2790    1.2503 C.3     1  UNL1        0.0000
      6 C           2.2603    1.3943    0.6514 C.3     1  UNL1        0.0000
      7 O           2.0177    0.6925    1.6799 O.3     1  UNL1        0.0000
      8 O           1.7482    1.2394   -0.5008 O.3     1  UNL1        0.0000
      9 O          -0.8882    0.5074    2.1100 O.3     1  UNL1        0.0000
     10 O          -1.0537    1.3786    0.0332 O.3     1  UNL1        0.0000
     11 O          -1.3758   -1.4076   -0.8325 O.3     1  UNL1        0.0000
     12 O          -0.8247   -2.2532    1.1901 O.3     1  UNL1        0.0000
     13 O           1.4181   -1.5933   -1.3642 O.3     1  UNL1        0.0000
     14 O           2.0486   -2.0465    0.7594 O.3     1  UNL1        0.0000
     15 N           2.8003    3.6046   -0.1300 N.am    1  UNL1        0.0000
     16 N          -3.3660    2.4498    0.4703 N.am    1  UNL1        0.0000
     17 N          -3.9122   -2.7086    0.1628 N.am    1  UNL1        0.0000
     18 N           4.4340   -2.8908   -0.5519 N.am    1  UNL1        0.0000
     19 C           3.2920    2.5362    0.7793 C.3     1  UNL1        0.0000
     20 C           4.6720    1.9636    0.3722 C.3     1  UNL1        0.0000
     21 C           5.8262    2.9504    0.5884 C.3     1  UNL1        0.0000
     22 C           5.8574    3.5084    2.0140 C.3     1  UNL1        0.0000
     23 C           4.4949    4.0962    2.3927 C.3     1  UNL1        0.0000
     24 C           3.3836    3.0567    2.2315 C.3     1  UNL1        0.0000
     25 C           1.4733    4.0602    0.0550 C.2     1  UNL1        0.0000
     26 C           1.0684    4.7611   -1.1838 C.ar    1  UNL1        0.0000
     27 C          -0.1290    5.3822   -1.5104 C.ar    1  UNL1        0.0000
     28 C          -0.2309    5.9151   -2.8012 C.ar    1  UNL1        0.0000
     29 C           0.8290    5.8214   -3.7133 C.ar    1  UNL1        0.0000
     30 C           2.0272    5.1831   -3.3695 C.ar    1  UNL1        0.0000
     31 C           2.1185    4.6549   -2.0910 C.ar    1  UNL1        0.0000
     32 C           3.2205    3.8747   -1.4578 C.2     1  UNL1        0.0000
     33 C          -2.5772    2.1914    1.7029 C.3     1  UNL1        0.0000
     34 C          -2.0120    3.5000    2.3033 C.3     1  UNL1        0.0000
     35 C          -1.3169    3.2575    3.6466 C.3     1  UNL1        0.0000
     36 C          -2.2851    2.6566    4.6697 C.3     1  UNL1        0.0000
     37 C          -2.8895    1.3509    4.1452 C.3     1  UNL1        0.0000
     38 C          -3.5026    1.5083    2.7471 C.3     1  UNL1        0.0000
     39 C          -3.7955    1.3404   -0.2866 C.2     1  UNL1        0.0000
     40 C          -4.2980    1.8533   -1.5797 C.ar    1  UNL1        0.0000
     41 C          -4.8354    1.1779   -2.6665 C.ar    1  UNL1        0.0000
     42 C          -5.1953    1.9547   -3.7753 C.ar    1  UNL1        0.0000
     43 C          -5.0130    3.3440   -3.7806 C.ar    1  UNL1        0.0000
     44 C          -4.4572    4.0071   -2.6790 C.ar    1  UNL1        0.0000
     45 C          -4.1053    3.2322   -1.5853 C.ar    1  UNL1        0.0000
     46 C          -3.4596    3.6307   -0.2986 C.2     1  UNL1        0.0000
     47 C          -2.5809   -3.3380   -0.0667 C.3     1  UNL1        0.0000
     48 C          -2.4373   -3.9039   -1.5000 C.3     1  UNL1        0.0000
     49 C          -3.3595   -5.0967   -1.7743 C.3     1  UNL1        0.0000
     50 C          -3.1876   -6.2082   -0.7341 C.3     1  UNL1        0.0000
     51 C          -3.3369   -5.6514    0.6854 C.3     1  UNL1        0.0000
     52 C          -2.3630   -4.4960    0.9334 C.3     1  UNL1        0.0000
     53 C          -4.3271   -2.2828    1.4549 C.2     1  UNL1        0.0000
     54 C          -5.6563   -1.6433    1.2844 C.ar    1  UNL1        0.0000
     55 C          -6.5030   -1.0843    2.2280 C.ar    1  UNL1        0.0000
     56 C          -7.6764   -0.4823    1.7573 C.ar    1  UNL1        0.0000
     57 C          -7.9706   -0.4468    0.3882 C.ar    1  UNL1        0.0000
     58 C          -7.1003   -1.0096   -0.5538 C.ar    1  UNL1        0.0000
     59 C          -5.9448   -1.6040   -0.0733 C.ar    1  UNL1        0.0000
     60 C          -4.8076   -2.2160   -0.8150 C.2     1  UNL1        0.0000
     61 C           3.0793   -3.3211   -0.9757 C.3     1  UNL1        0.0000
     62 C           2.6472   -4.6296   -0.2749 C.3     1  UNL1        0.0000
     63 C           1.2652   -5.0704   -0.7653 C.3     1  UNL1        0.0000
     64 C           1.2725   -5.3190   -2.2773 C.3     1  UNL1        0.0000
     65 C           1.7263   -4.0678   -3.0379 C.3     1  UNL1        0.0000
     66 C           3.0573   -3.5100   -2.5071 C.3     1  UNL1        0.0000
     67 C           5.4250   -3.6271    0.1396 C.2     1  UNL1        0.0000
     68 C           6.5856   -2.6999    0.2895 C.ar    1  UNL1        0.0000
     69 C           7.8131   -2.9116    0.8972 C.ar    1  UNL1        0.0000
     70 C           8.7331   -1.8559    0.8690 C.ar    1  UNL1        0.0000
     71 C           8.4240   -0.6425    0.2412 C.ar    1  UNL1        0.0000
     72 C           7.1821   -0.4425   -0.3736 C.ar    1  UNL1        0.0000
     73 C           6.2753   -1.4905   -0.3256 C.ar    1  UNL1        0.0000
     74 C           4.8950   -1.5936   -0.8625 C.2     1  UNL1        0.0000
     75 H           4.8176    1.0895    1.0185 H       1  UNL1        0.0000
     76 H           4.6433    1.6017   -0.6535 H       1  UNL1        0.0000
     77 H           6.7698    2.4402    0.3627 H       1  UNL1        0.0000
     78 H           5.7358    3.7667   -0.1333 H       1  UNL1        0.0000
     79 H           6.6450    4.2648    2.1070 H       1  UNL1        0.0000
     80 H           6.1067    2.7029    2.7189 H       1  UNL1        0.0000
     81 H           4.5036    4.4562    3.4274 H       1  UNL1        0.0000
     82 H           4.2786    4.9661    1.7588 H       1  UNL1        0.0000
     83 H           2.4189    3.4515    2.5437 H       1  UNL1        0.0000
     84 H           3.5951    2.1879    2.8619 H       1  UNL1        0.0000
     85 H          -1.1510    6.4052   -3.1035 H       1  UNL1        0.0000
     86 H           0.7137    6.2432   -4.7068 H       1  UNL1        0.0000
     87 H           2.8493    5.0887   -4.0706 H       1  UNL1        0.0000
     88 H          -1.3286    3.9702    1.6026 H       1  UNL1        0.0000
     89 H          -2.8570    4.1795    2.4489 H       1  UNL1        0.0000
     90 H          -0.4550    2.5964    3.5078 H       1  UNL1        0.0000
     91 H          -0.9225    4.2149    4.0040 H       1  UNL1        0.0000
     92 H          -3.0882    3.3814    4.8671 H       1  UNL1        0.0000
     93 H          -1.7779    2.4805    5.6252 H       1  UNL1        0.0000
     94 H          -3.6736    0.9920    4.8223 H       1  UNL1        0.0000
     95 H          -2.1203    0.5766    4.1113 H       1  UNL1        0.0000
     96 H          -4.3896    2.1515    2.8079 H       1  UNL1        0.0000
     97 H          -3.8256    0.5379    2.3745 H       1  UNL1        0.0000
     98 H          -4.9478    0.0983   -2.6581 H       1  UNL1        0.0000
     99 H          -5.6164    1.4717   -4.6514 H       1  UNL1        0.0000
    100 H          -5.3005    3.9134   -4.6589 H       1  UNL1        0.0000
    101 H          -1.3955   -4.2329   -1.5788 H       1  UNL1        0.0000
    102 H          -2.5847   -3.1163   -2.2330 H       1  UNL1        0.0000
    103 H          -3.1487   -5.4764   -2.7805 H       1  UNL1        0.0000
    104 H          -4.3999   -4.7570   -1.7886 H       1  UNL1        0.0000
    105 H          -3.9101   -7.0127   -0.9127 H       1  UNL1        0.0000
    106 H          -2.1877   -6.6528   -0.8383 H       1  UNL1        0.0000
    107 H          -3.1587   -6.4362    1.4286 H       1  UNL1        0.0000
    108 H          -4.3674   -5.3053    0.8395 H       1  UNL1        0.0000
    109 H          -2.4263   -4.1276    1.9535 H       1  UNL1        0.0000
    110 H          -1.3374   -4.8486    0.7838 H       1  UNL1        0.0000
    111 H          -8.3683   -0.0314    2.4615 H       1  UNL1        0.0000
    112 H          -8.8864    0.0305    0.0539 H       1  UNL1        0.0000
    113 H          -7.3106   -0.9772   -1.6172 H       1  UNL1        0.0000
    114 H           2.6543   -4.4812    0.8056 H       1  UNL1        0.0000
    115 H           3.3790   -5.4053   -0.5017 H       1  UNL1        0.0000
    116 H           0.5208   -4.3067   -0.5115 H       1  UNL1        0.0000
    117 H           0.9697   -5.9774   -0.2269 H       1  UNL1        0.0000
    118 H           1.9539   -6.1533   -2.4932 H       1  UNL1        0.0000
    119 H           0.2787   -5.6283   -2.6214 H       1  UNL1        0.0000
    120 H           1.8405   -4.2922   -4.1043 H       1  UNL1        0.0000
    121 H           0.9585   -3.2940   -2.9557 H       1  UNL1        0.0000
    122 H           3.8683   -4.2114   -2.7389 H       1  UNL1        0.0000
    123 H           3.2891   -2.5590   -2.9898 H       1  UNL1        0.0000
    124 H           8.0417   -3.8595    1.3719 H       1  UNL1        0.0000
    125 H           9.7046   -1.9795    1.3370 H       1  UNL1        0.0000
    126 H           9.1613    0.1539    0.2297 H       1  UNL1        0.0000
    127 O           4.2665    3.5508   -1.9804 O.2     1  UNL1        0.0000
    128 O           0.8025    3.8563    1.0489 O.2     1  UNL1        0.0000
    129 O          -3.7170    0.1848    0.0804 O.2     1  UNL1        0.0000
    130 O          -3.0963    4.7503    0.0053 O.2     1  UNL1        0.0000
    131 O          -3.7031   -2.3983    2.4891 O.2     1  UNL1        0.0000
    132 O          -4.6991   -2.2754   -2.0252 O.2     1  UNL1        0.0000
    133 O           4.2486   -0.7479   -1.4493 O.2     1  UNL1        0.0000
    134 O           5.3672   -4.7782    0.5182 O.2     1  UNL1        0.0000
    135 H          -0.9531    5.4328   -0.8067 H       1  UNL1        0.0000
    136 H          -4.2991    5.0802   -2.6749 H       1  UNL1        0.0000
    137 H          -6.2531   -1.1087    3.2831 H       1  UNL1        0.0000
    138 H           6.9338    0.4876   -0.8709 H       1  UNL1        0.0000
@<TRIPOS>BOND
     1     1     7    1
     2     1     9    1
     3     2     8    1
     4     2    10    1
     5     2     1    1
     6     3    14    1
     7     4    12    1
     8     5    33    1
     9     5     9    1
    10     6    19    1
    11     6     7    1
    12     8     6    1
    13    10     5    1
    14    11     2    1
    15    11     4    1
    16    12     1    1
    17    13     2    1
    18    13     3    1
    19    14     1    1
    20    15    25   am
    21    15    19    1
    22    16    33    1
    23    17    53   am
    24    18    67   am
    25    19    24    1
    26    20    21    1
    27    20    19    1
    28    20    75    1
    29    21    22    1
    30    22    79    1
    31    22    23    1
    32    22    80    1
    33    23    81    1
    34    24    23    1
    35    24    83    1
    36    24    84    1
    37    25   128    2
    38    26    25    1
    39    27    26   ar
    40    27   135    1
    41    28    27   ar
    42    29    30   ar
    43    29    28   ar
    44    30    31   ar
    45    31    32    1
    46    31    26   ar
    47    32    15   am
    48    33    34    1
    49    33    38    1
    50    34    89    1
    51    34    35    1
    52    35    91    1
    53    35    36    1
    54    36    92    1
    55    36    93    1
    56    37    36    1
    57    37    94    1
    58    38    96    1
    59    38    37    1
    60    39   129    2
    61    39    16   am
    62    40    39    1
    63    41    98    1
    64    41    40   ar
    65    42    41   ar
    66    43    42   ar
    67    43    44   ar
    68    44   136    1
    69    44    45   ar
    70    45    40   ar
    71    45    46    1
    72    46   130    2
    73    46    16   am
    74    47     4    1
    75    47    17    1
    76    47    52    1
    77    48    47    1
    78    49    48    1
    79    49    50    1
    80    50    51    1
    81    51   108    1
    82    51    52    1
    83    51   107    1
    84    52   109    1
    85    53   131    2
    86    54    53    1
    87    54    55   ar
    88    55   137    1
    89    56    55   ar
    90    56   111    1
    91    57    56   ar
    92    58    59   ar
    93    58    57   ar
    94    59    54   ar
    95    60    59    1
    96    60    17   am
    97    61    18    1
    98    61     3    1
    99    61    62    1
   100    62   114    1
   101    63   116    1
   102    63    62    1
   103    63   117    1
   104    64    63    1
   105    65   121    1
   106    65    66    1
   107    65    64    1
   108    66    61    1
   109    67    68    1
   110    67   134    2
   111    68    69   ar
   112    69   124    1
   113    70    69   ar
   114    70   125    1
   115    71    70   ar
   116    72    73   ar
   117    72    71   ar
   118    73    68   ar
   119    74    18   am
   120    74    73    1
   121    76    20    1
   122    77    21    1
   123    78    21    1
   124    82    23    1
   125    85    28    1
   126    86    29    1
   127    87    30    1
   128    88    34    1
   129    90    35    1
   130    95    37    1
   131    97    38    1
   132    99    42    1
   133   100    43    1
   134   101    48    1
   135   102    48    1
   136   103    49    1
   137   104    49    1
   138   105    50    1
   139   106    50    1
   140   110    52    1
   141   112    57    1
   142   113    58    1
   143   115    62    1
   144   118    64    1
   145   119    64    1
   146   120    65    1
   147   122    66    1
   148   123    66    1
   149   126    71    1
   150   127    32    2
   151   132    60    2
   152   133    74    2
   153   138    72    1
