@<TRIPOS>MOLECULE
RhRh_SS-diOBn-phthal-cat27_tBuCN_6_ONIOM_sp
 230 245 0 0 0
SMALL
GASTEIGER

@<TRIPOS>ATOM
      1 C           1.8440    0.3241   -3.2872 C.3     1  UNL1        0.0000
      2 C          -1.6860    1.2937   -2.8869 C.3     1  UNL1        0.0000
      3 C          -2.6282   -2.1468   -2.1353 C.3     1  UNL1        0.0000
      4 C           0.9429   -3.2212   -2.5134 C.3     1  UNL1        0.0000
      5 O          -1.2446    0.9891   -1.7261 O.3     1  UNL1        0.0000
      6 O          -1.5753    0.6227   -3.9543 O.3     1  UNL1        0.0000
      7 O          -1.9433   -1.7427   -1.1367 O.3     1  UNL1        0.0000
      8 O          -2.2921   -2.1264   -3.3555 O.3     1  UNL1        0.0000
      9 O           0.8780   -2.4856   -1.4703 O.3     1  UNL1        0.0000
     10 O           0.5057   -2.9462   -3.6686 O.3     1  UNL1        0.0000
     11 O           1.4998    0.2699   -2.0559 O.3     1  UNL1        0.0000
     12 O           1.2177   -0.1457   -4.2805 O.3     1  UNL1        0.0000
     13 N          -1.6573    3.5790   -2.0570 N.am    1  UNL1        0.0000
     14 N          -4.5740   -1.8220   -0.7021 N.am    1  UNL1        0.0000
     15 N           1.3131   -4.9537   -0.8539 N.am    1  UNL1        0.0000
     16 N           4.0752    0.6018   -2.3889 N.am    1  UNL1        0.0000
     17 C          -0.2864    3.8002   -2.2393 C.2     1  UNL1        0.0000
     18 C          -2.0938    3.9948   -0.7982 C.2     1  UNL1        0.0000
     19 C          -4.8849   -2.2553    0.5871 C.2     1  UNL1        0.0000
     20 C          -4.5943   -0.4309   -0.8279 C.2     1  UNL1        0.0000
     21 C           0.0102   -4.8142   -0.3428 C.2     1  UNL1        0.0000
     22 C           2.2728   -5.0066    0.1659 C.2     1  UNL1        0.0000
     23 C           4.1688   -0.7526   -2.0280 C.2     1  UNL1        0.0000
     24 C           4.4726    1.4478   -1.3492 C.2     1  UNL1        0.0000
     25 C          -2.4673    2.6212   -2.8252 C.3     1  UNL1        0.0000
     26 C          -3.0414    3.2119   -4.1428 C.3     1  UNL1        0.0000
     27 C          -3.8018    4.5192   -3.8198 C.3     1  UNL1        0.0000
     28 C          -1.9379    3.5339   -5.1740 C.3     1  UNL1        0.0000
     29 C          -4.0566    2.2287   -4.7738 C.3     1  UNL1        0.0000
     30 C          -3.9830   -2.7488   -1.6843 C.3     1  UNL1        0.0000
     31 C          -4.9860   -3.2021   -2.7848 C.3     1  UNL1        0.0000
     32 C          -6.2521   -3.7831   -2.1123 C.3     1  UNL1        0.0000
     33 C          -4.3655   -4.3262   -3.6495 C.3     1  UNL1        0.0000
     34 C          -5.4205   -2.0355   -3.7003 C.3     1  UNL1        0.0000
     35 C           1.7031   -4.5389   -2.2155 C.3     1  UNL1        0.0000
     36 C           1.6284   -5.6839   -3.2634 C.3     1  UNL1        0.0000
     37 C           2.2784   -5.2393   -4.5958 C.3     1  UNL1        0.0000
     38 C           2.4262   -6.9016   -2.7415 C.3     1  UNL1        0.0000
     39 C           0.1762   -6.1344   -3.5327 C.3     1  UNL1        0.0000
     40 C           3.1664    1.1108   -3.4312 C.3     1  UNL1        0.0000
     41 C           3.8225    1.2168   -4.8335 C.3     1  UNL1        0.0000
     42 C           2.8702    1.9361   -5.8181 C.3     1  UNL1        0.0000
     43 C           5.1095    2.0677   -4.7241 C.3     1  UNL1        0.0000
     44 C           4.2006   -0.1654   -5.4076 C.3     1  UNL1        0.0000
     45 C           1.5278   -5.1238    1.5053 C.3     1  UNL1        0.0000
     46 C           0.1412   -4.5792    1.1688 C.3     1  UNL1        0.0000
     47 C          -5.1067    0.1739    0.4897 C.3     1  UNL1        0.0000
     48 C          -5.1478   -1.0234    1.4645 C.3     1  UNL1        0.0000
     49 C          -1.0266    4.9340   -0.2086 C.3     1  UNL1        0.0000
     50 C           0.2060    4.7241   -1.1150 C.3     1  UNL1        0.0000
     51 C           4.6767   -0.8185   -0.5829 C.3     1  UNL1        0.0000
     52 C           5.2202    0.5947   -0.3075 C.3     1  UNL1        0.0000
     53 C           5.6570    2.0350    1.4816 C.3     1  UNL1        0.0000
     54 C           5.5542   -2.5172    0.7726 C.3     1  UNL1        0.0000
     55 C          -1.6408    4.9580    2.0532 C.3     1  UNL1        0.0000
     56 C           1.4792    6.6819   -0.9345 C.3     1  UNL1        0.0000
     57 C          -6.8433    1.6038    1.1501 C.3     1  UNL1        0.0000
     58 C          -4.4030   -1.3472    3.6707 C.3     1  UNL1        0.0000
     59 C          -2.0630   -4.5415    1.9303 C.3     1  UNL1        0.0000
     60 C           2.8624   -5.0764    3.4154 C.3     1  UNL1        0.0000
     61 C           4.9320    2.6793    2.6274 C.ar    1  UNL1        0.0000
     62 C           3.6434    3.2028    2.4305 C.ar    1  UNL1        0.0000
     63 C           5.5230    2.7668    3.8988 C.ar    1  UNL1        0.0000
     64 C           2.9554    3.7981    3.4904 C.ar    1  UNL1        0.0000
     65 C           4.8275    3.3576    4.9585 C.ar    1  UNL1        0.0000
     66 C           3.5442    3.8721    4.7548 C.ar    1  UNL1        0.0000
     67 C           6.3659   -1.7655    1.7942 C.ar    1  UNL1        0.0000
     68 C           7.7310   -1.5236    1.5695 C.ar    1  UNL1        0.0000
     69 C           5.7715   -1.3007    2.9781 C.ar    1  UNL1        0.0000
     70 C           8.4869   -0.8224    2.5143 C.ar    1  UNL1        0.0000
     71 C           6.5301   -0.6013    3.9207 C.ar    1  UNL1        0.0000
     72 C           7.8869   -0.3624    3.6896 C.ar    1  UNL1        0.0000
     73 C           3.4687   -4.1642    4.4434 C.ar    1  UNL1        0.0000
     74 C           4.8549   -4.1608    4.6733 C.ar    1  UNL1        0.0000
     75 C           2.6435   -3.3152    5.2003 C.ar    1  UNL1        0.0000
     76 C           5.4043   -3.3192    5.6458 C.ar    1  UNL1        0.0000
     77 C           3.1990   -2.4630    6.1589 C.ar    1  UNL1        0.0000
     78 C           4.5782   -2.4663    6.3830 C.ar    1  UNL1        0.0000
     79 C          -2.8176   -4.7810    3.2071 C.ar    1  UNL1        0.0000
     80 C          -2.3035   -4.3008    4.4231 C.ar    1  UNL1        0.0000
     81 C          -4.0484   -5.4593    3.2011 C.ar    1  UNL1        0.0000
     82 C          -3.0177   -4.4810    5.6111 C.ar    1  UNL1        0.0000
     83 C          -4.7597   -5.6372    4.3918 C.ar    1  UNL1        0.0000
     84 C          -4.2464   -5.1460    5.5952 C.ar    1  UNL1        0.0000
     85 C          -5.0016   -0.2086    4.4488 C.ar    1  UNL1        0.0000
     86 C          -6.3332   -0.2652    4.8909 C.ar    1  UNL1        0.0000
     87 C          -4.2319    0.9350    4.7203 C.ar    1  UNL1        0.0000
     88 C          -6.8873    0.8112    5.5908 C.ar    1  UNL1        0.0000
     89 C          -4.7880    2.0059    5.4264 C.ar    1  UNL1        0.0000
     90 C          -6.1156    1.9456    5.8582 C.ar    1  UNL1        0.0000
     91 C          -6.3271    2.9969    0.9050 C.ar    1  UNL1        0.0000
     92 C          -5.6421    3.6900    1.9173 C.ar    1  UNL1        0.0000
     93 C          -6.5754    3.6372   -0.3205 C.ar    1  UNL1        0.0000
     94 C          -5.2243    5.0081    1.7100 C.ar    1  UNL1        0.0000
     95 C          -6.1474    4.9527   -0.5271 C.ar    1  UNL1        0.0000
     96 C          -5.4744    5.6385    0.4880 C.ar    1  UNL1        0.0000
     97 C           2.9097    6.2121   -0.9462 C.ar    1  UNL1        0.0000
     98 C           3.5850    5.9598    0.2594 C.ar    1  UNL1        0.0000
     99 C           3.5972    6.0702   -2.1633 C.ar    1  UNL1        0.0000
    100 C           4.9311    5.5819    0.2460 C.ar    1  UNL1        0.0000
    101 C           4.9399    5.6797   -2.1726 C.ar    1  UNL1        0.0000
    102 C           5.6077    5.4401   -0.9685 C.ar    1  UNL1        0.0000
    103 C          -1.0213    5.1227    3.4106 C.ar    1  UNL1        0.0000
    104 C          -0.0863    6.1470    3.6334 C.ar    1  UNL1        0.0000
    105 C          -1.3658    4.2628    4.4671 C.ar    1  UNL1        0.0000
    106 C           0.5063    6.2980    4.8909 C.ar    1  UNL1        0.0000
    107 C          -0.7681    4.4147    5.7216 C.ar    1  UNL1        0.0000
    108 C           0.1678    5.4307    5.9333 C.ar    1  UNL1        0.0000
    109 H          -3.3074    2.3857   -2.1600 H       1  UNL1        0.0000
    110 H          -4.2661    4.9444   -4.7360 H       1  UNL1        0.0000
    111 H          -3.1182    5.2889   -3.4014 H       1  UNL1        0.0000
    112 H          -4.6080    4.3292   -3.0791 H       1  UNL1        0.0000
    113 H          -1.3145    2.6455   -5.4001 H       1  UNL1        0.0000
    114 H          -1.2785    4.3487   -4.8098 H       1  UNL1        0.0000
    115 H          -2.3901    3.8799   -6.1286 H       1  UNL1        0.0000
    116 H          -3.5666    1.3097   -5.1517 H       1  UNL1        0.0000
    117 H          -4.5715    2.6987   -5.6396 H       1  UNL1        0.0000
    118 H          -4.8322    1.9347   -4.0339 H       1  UNL1        0.0000
    119 H          -3.7058   -3.6273   -1.0878 H       1  UNL1        0.0000
    120 H          -6.7807   -3.0094   -1.5153 H       1  UNL1        0.0000
    121 H          -5.9873   -4.6266   -1.4386 H       1  UNL1        0.0000
    122 H          -6.9676   -4.1615   -2.8745 H       1  UNL1        0.0000
    123 H          -3.9668   -5.1414   -3.0076 H       1  UNL1        0.0000
    124 H          -3.5448   -3.9540   -4.2937 H       1  UNL1        0.0000
    125 H          -5.1280   -4.7660   -4.3284 H       1  UNL1        0.0000
    126 H          -4.5530   -1.5415   -4.1818 H       1  UNL1        0.0000
    127 H          -5.9900   -1.2731   -3.1294 H       1  UNL1        0.0000
    128 H          -6.0861   -2.4069   -4.5094 H       1  UNL1        0.0000
    129 H           2.7529   -4.2307   -2.1102 H       1  UNL1        0.0000
    130 H           3.2943   -4.8243   -4.4194 H       1  UNL1        0.0000
    131 H           1.6722   -4.4752   -5.1209 H       1  UNL1        0.0000
    132 H           2.3764   -6.1009   -5.2914 H       1  UNL1        0.0000
    133 H           3.4807   -6.6190   -2.5317 H       1  UNL1        0.0000
    134 H           2.4299   -7.7233   -3.4903 H       1  UNL1        0.0000
    135 H           1.9796   -7.3034   -1.8068 H       1  UNL1        0.0000
    136 H          -0.4648   -5.2852   -3.8462 H       1  UNL1        0.0000
    137 H          -0.2677   -6.6023   -2.6299 H       1  UNL1        0.0000
    138 H           0.1510   -6.8942   -4.3436 H       1  UNL1        0.0000
    139 H           2.9104    2.1236   -3.0926 H       1  UNL1        0.0000
    140 H           1.9793    1.3224   -6.0574 H       1  UNL1        0.0000
    141 H           3.3858    2.1448   -6.7806 H       1  UNL1        0.0000
    142 H           2.5265    2.9052   -5.3957 H       1  UNL1        0.0000
    143 H           5.8573    1.5799   -4.0627 H       1  UNL1        0.0000
    144 H           4.8813    3.0738   -4.3095 H       1  UNL1        0.0000
    145 H           5.5809    2.2028   -5.7217 H       1  UNL1        0.0000
    146 H           3.3220   -0.8393   -5.4654 H       1  UNL1        0.0000
    147 H           4.9823   -0.6517   -4.7876 H       1  UNL1        0.0000
    148 H           4.6118   -0.0583   -6.4347 H       1  UNL1        0.0000
    149 H           1.4044   -6.1904    1.7485 H       1  UNL1        0.0000
    150 H           0.2238   -3.4837    1.2763 H       1  UNL1        0.0000
    151 H          -4.3679    0.9127    0.8271 H       1  UNL1        0.0000
    152 H          -6.1513   -1.1060    1.9009 H       1  UNL1        0.0000
    153 H          -1.3807    5.9653   -0.3662 H       1  UNL1        0.0000
    154 H           0.9711    4.1715   -0.5511 H       1  UNL1        0.0000
    155 H           3.7528   -0.9117    0.0118 H       1  UNL1        0.0000
    156 H           6.2963    0.5931   -0.5409 H       1  UNL1        0.0000
    157 H           6.6580    1.6720    1.8010 H       1  UNL1        0.0000
    158 H           5.8129    2.8079    0.6971 H       1  UNL1        0.0000
    159 H           4.5085   -2.6874    1.1189 H       1  UNL1        0.0000
    160 H           6.0010   -3.5269    0.6571 H       1  UNL1        0.0000
    161 H          -2.1684    5.9072    1.8023 H       1  UNL1        0.0000
    162 H          -2.3856    4.1339    2.0754 H       1  UNL1        0.0000
    163 H           1.4598    7.7201   -1.3268 H       1  UNL1        0.0000
    164 H           1.0718    6.7381    0.1019 H       1  UNL1        0.0000
    165 H          -7.9515    1.6356    1.0933 H       1  UNL1        0.0000
    166 H          -6.6012    1.2551    2.1807 H       1  UNL1        0.0000
    167 H          -5.0737   -2.2383    3.6483 H       1  UNL1        0.0000
    168 H          -3.4816   -1.6768    4.1915 H       1  UNL1        0.0000
    169 H          -1.9745   -3.4373    1.7979 H       1  UNL1        0.0000
    170 H          -2.6264   -4.9498    1.0638 H       1  UNL1        0.0000
    171 H           2.1911   -5.7899    3.9448 H       1  UNL1        0.0000
    172 H           3.6570   -5.6541    2.8898 H       1  UNL1        0.0000
    173 H           3.1708    3.1445    1.4574 H       1  UNL1        0.0000
    174 H           6.5190    2.3799    4.0717 H       1  UNL1        0.0000
    175 H           1.9642    4.1973    3.3306 H       1  UNL1        0.0000
    176 H           5.2847    3.4186    5.9376 H       1  UNL1        0.0000
    177 H           3.0079    4.3298    5.5756 H       1  UNL1        0.0000
    178 H           8.2066   -1.8748    0.6622 H       1  UNL1        0.0000
    179 H           4.7241   -1.4797    3.1734 H       1  UNL1        0.0000
    180 H           9.5376   -0.6353    2.3349 H       1  UNL1        0.0000
    181 H           6.0649   -0.2422    4.8295 H       1  UNL1        0.0000
    182 H           8.4721    0.1820    4.4193 H       1  UNL1        0.0000
    183 H           5.5104   -4.8069    4.1029 H       1  UNL1        0.0000
    184 H           1.5720   -3.3108    5.0436 H       1  UNL1        0.0000
    185 H           6.4729   -3.3178    5.8178 H       1  UNL1        0.0000
    186 H           2.5596   -1.8025    6.7301 H       1  UNL1        0.0000
    187 H           5.0072   -1.8069    7.1262 H       1  UNL1        0.0000
    188 H          -1.3545   -3.7819    4.4496 H       1  UNL1        0.0000
    189 H          -4.4618   -5.8439    2.2772 H       1  UNL1        0.0000
    190 H          -2.6196   -4.1025    6.5436 H       1  UNL1        0.0000
    191 H          -5.7104   -6.1544    4.3812 H       1  UNL1        0.0000
    192 H          -4.7995   -5.2827    6.5153 H       1  UNL1        0.0000
    193 H          -6.9445   -1.1351    4.6856 H       1  UNL1        0.0000
    194 H          -3.2045    0.9961    4.3829 H       1  UNL1        0.0000
    195 H          -7.9157    0.7665    5.9249 H       1  UNL1        0.0000
    196 H          -4.1925    2.8854    5.6337 H       1  UNL1        0.0000
    197 H          -6.5465    2.7777    6.3996 H       1  UNL1        0.0000
    198 H          -5.4434    3.2176    2.8701 H       1  UNL1        0.0000
    199 H          -7.1062    3.1204   -1.1105 H       1  UNL1        0.0000
    200 H          -4.7051    5.5400    2.4966 H       1  UNL1        0.0000
    201 H          -6.3419    5.4424   -1.4724 H       1  UNL1        0.0000
    202 H          -5.1444    6.6566    0.3270 H       1  UNL1        0.0000
    203 H           3.0758    6.0686    1.2091 H       1  UNL1        0.0000
    204 H           3.0942    6.2655   -3.1024 H       1  UNL1        0.0000
    205 H           5.4498    5.3983    1.1780 H       1  UNL1        0.0000
    206 H           5.4638    5.5670   -3.1130 H       1  UNL1        0.0000
    207 H           6.6475    5.1401   -0.9764 H       1  UNL1        0.0000
    208 H           0.1899    6.8199    2.8306 H       1  UNL1        0.0000
    209 H          -2.0885    3.4710    4.3192 H       1  UNL1        0.0000
    210 H           1.2328    7.0831    5.0554 H       1  UNL1        0.0000
    211 H          -1.0303    3.7437    6.5294 H       1  UNL1        0.0000
    212 H           0.6314    5.5454    6.9044 H       1  UNL1        0.0000
    213 O          -4.2657    0.1805   -1.8204 O.2     1  UNL1        0.0000
    214 O          -4.8870   -3.4113    0.9494 O.2     1  UNL1        0.0000
    215 O           3.4705   -4.9498   -0.0032 O.2     1  UNL1        0.0000
    216 O          -1.0035   -4.7864   -1.0057 O.2     1  UNL1        0.0000
    217 O          -3.1481    3.6709   -0.2944 O.2     1  UNL1        0.0000
    218 O           0.3867    3.3174   -3.1218 O.2     1  UNL1        0.0000
    219 O           3.8160   -1.6834   -2.7158 O.2     1  UNL1        0.0000
    220 O           4.2320    2.6343   -1.2980 O.2     1  UNL1        0.0000
    221 O          -6.3893    0.7175    0.1729 O.3     1  UNL1        0.0000
    222 O          -4.0597   -0.9140    2.3929 O.3     1  UNL1        0.0000
    223 O           5.6046   -1.8789   -0.4664 O.3     1  UNL1        0.0000
    224 O          -0.6410    4.6521    1.1320 O.3     1  UNL1        0.0000
    225 O           0.6855    5.8957   -1.7685 O.3     1  UNL1        0.0000
    226 O           4.9050    0.9553    1.0272 O.3     1  UNL1        0.0000
    227 O          -0.8247   -5.1774    2.0069 O.3     1  UNL1        0.0000
    228 O           2.1370   -4.3188    2.5041 O.3     1  UNL1        0.0000
    229 Rh         -0.1843   -0.7328   -1.4864 Rh      1  UNL1        0.0000
    230 Rh         -0.5455   -1.1743   -3.9318 Rh      1  UNL1        0.0000
@<TRIPOS>BOND
     1     1    40    1
     2     1    11    1
     3     2    25    1
     4     2     5    1
     5     3    30    1
     6     3     7    1
     7     4    35    1
     8     4     9    1
     9     5   229    1
    10     6   230    1
    11     6     2    1
    12     8     3    1
    13    10     4    1
    14    11   229    1
    15    12   230    1
    16    12     1    1
    17    13    18   am
    18    14    19   am
    19    15    21   am
    20    15    22   am
    21    16    23   am
    22    16    24   am
    23    17    13   am
    24    17    50    1
    25    18   217    2
    26    18    49    1
    27    19   214    2
    28    19    48    1
    29    20    14   am
    30    20    47    1
    31    21    46    1
    32    22    45    1
    33    23    51    1
    34    24   220    2
    35    24    52    1
    36    25   109    1
    37    25    13    1
    38    26    27    1
    39    26    25    1
    40    27   111    1
    41    27   112    1
    42    28   114    1
    43    28    26    1
    44    29    26    1
    45    29   118    1
    46    30   119    1
    47    30    14    1
    48    31    32    1
    49    31    30    1
    50    32   120    1
    51    32   121    1
    52    33   123    1
    53    33    31    1
    54    34   127    1
    55    34    31    1
    56    35   129    1
    57    35    15    1
    58    36    38    1
    59    36    35    1
    60    37   130    1
    61    37    36    1
    62    38   133    1
    63    38   135    1
    64    39    36    1
    65    39   137    1
    66    40   139    1
    67    40    16    1
    68    41    43    1
    69    41    40    1
    70    42   142    1
    71    42    41    1
    72    43   144    1
    73    43   143    1
    74    44    41    1
    75    44   147    1
    76    45   149    1
    77    45   228    1
    78    46   150    1
    79    46    45    1
    80    46   227    1
    81    47   151    1
    82    47    48    1
    83    48   152    1
    84    48   222    1
    85    49   153    1
    86    49   224    1
    87    50   154    1
    88    50    49    1
    89    51   223    1
    90    51    52    1
    91    51   155    1
    92    52   156    1
    93    52   226    1
    94    53   157    1
    95    53    61    1
    96    54   159    1
    97    54    67    1
    98    55   162    1
    99    55   103    1
   100    56   164    1
   101    57   166    1
   102    58   168    1
   103    58    85    1
   104    59   227    1
   105    59    79    1
   106    60   171    1
   107    60    73    1
   108    61    63   ar
   109    62    61   ar
   110    62    64   ar
   111    63   174    1
   112    63    65   ar
   113    64    66   ar
   114    65   176    1
   115    66    65   ar
   116    66   177    1
   117    67    69   ar
   118    68    67   ar
   119    68    70   ar
   120    69   179    1
   121    69    71   ar
   122    70    72   ar
   123    71   181    1
   124    72    71   ar
   125    72   182    1
   126    73    74   ar
   127    73    75   ar
   128    74    76   ar
   129    75    77   ar
   130    76   185    1
   131    76    78   ar
   132    77    78   ar
   133    77   186    1
   134    78   187    1
   135    79    80   ar
   136    80   188    1
   137    80    82   ar
   138    81    79   ar
   139    81    83   ar
   140    82   190    1
   141    83    84   ar
   142    84    82   ar
   143    84   192    1
   144    85    87   ar
   145    85    86   ar
   146    86    88   ar
   147    87    89   ar
   148    88    90   ar
   149    88   195    1
   150    89   196    1
   151    89    90   ar
   152    90   197    1
   153    91    57    1
   154    91    92   ar
   155    92   198    1
   156    93    91   ar
   157    94    92   ar
   158    94   200    1
   159    95    93   ar
   160    95    96   ar
   161    96    94   ar
   162    97    56    1
   163    97    98   ar
   164    98   203    1
   165    99    97   ar
   166   100    98   ar
   167   100   205    1
   168   101    99   ar
   169   101   102   ar
   170   102   100   ar
   171   103   104   ar
   172   103   105   ar
   173   104   106   ar
   174   105   107   ar
   175   106   210    1
   176   106   108   ar
   177   107   108   ar
   178   107   211    1
   179   108   212    1
   180   110    27    1
   181   113    28    1
   182   115    28    1
   183   116    29    1
   184   117    29    1
   185   122    32    1
   186   124    33    1
   187   125    33    1
   188   126    34    1
   189   128    34    1
   190   131    37    1
   191   132    37    1
   192   134    38    1
   193   136    39    1
   194   138    39    1
   195   140    42    1
   196   141    42    1
   197   145    43    1
   198   146    44    1
   199   148    44    1
   200   158    53    1
   201   160    54    1
   202   161    55    1
   203   163    56    1
   204   165    57    1
   205   167    58    1
   206   169    59    1
   207   170    59    1
   208   172    60    1
   209   173    62    1
   210   175    64    1
   211   178    68    1
   212   180    70    1
   213   183    74    1
   214   184    75    1
   215   189    81    1
   216   191    83    1
   217   193    86    1
   218   194    87    1
   219   199    93    1
   220   201    95    1
   221   202    96    1
   222   204    99    1
   223   206   101    1
   224   207   102    1
   225   208   104    1
   226   209   105    1
   227   213    20    2
   228   215    22    2
   229   216    21    2
   230   218    17    2
   231   219    23    2
   232   221    47    1
   233   221    57    1
   234   222    58    1
   235   223    54    1
   236   224    55    1
   237   225    50    1
   238   225    56    1
   239   226    53    1
   240   228    60    1
   241   229     9    1
   242   229     7    1
   243   230    10    1
   244   230     8    1
   245   230   229    1
