@<TRIPOS>MOLECULE
RhRh_cis-Cy-fused-Hback-S-PTV4_19_sp
 146 157 0 0 0
SMALL
GASTEIGER

@<TRIPOS>ATOM
      1 Rh         -0.2508   -0.0093    0.2633 Rh      1  UNL1        0.0000
      2 Rh         -0.0672   -0.0969   -2.1203 Rh      1  UNL1        0.0000
      3 C           2.4309   -0.3493   -0.7162 C.3     1  UNL1        0.0000
      4 C          -2.7447    0.2947   -1.1442 C.3     1  UNL1        0.0000
      5 C           0.1830    2.5429   -1.0008 C.3     1  UNL1        0.0000
      6 C          -0.5063   -2.6445   -0.8487 C.3     1  UNL1        0.0000
      7 O          -0.4971   -2.0312    0.2671 O.3     1  UNL1        0.0000
      8 O          -0.2824   -2.1379   -1.9859 O.3     1  UNL1        0.0000
      9 O           1.7777   -0.2325    0.3692 O.3     1  UNL1        0.0000
     10 O           1.9605   -0.2921   -1.8898 O.3     1  UNL1        0.0000
     11 O          -0.0051    2.0139    0.1420 O.3     1  UNL1        0.0000
     12 O           0.1462    1.9514   -2.1175 O.3     1  UNL1        0.0000
     13 O          -2.2666    0.2305    0.0348 O.3     1  UNL1        0.0000
     14 O          -2.1070    0.1327   -2.2230 O.3     1  UNL1        0.0000
     15 N          -2.0703   -4.2271    0.0587 N.am    1  UNL1        0.0000
     16 N           4.1225   -1.6074    0.4532 N.am    1  UNL1        0.0000
     17 N           1.4651    4.2382    0.1136 N.am    1  UNL1        0.0000
     18 N          -4.4451    1.7134   -0.2395 N.am    1  UNL1        0.0000
     19 C          -3.1629   -3.3648   -0.0834 C.2     1  UNL1        0.0000
     20 C          -2.1259   -4.9615    1.2484 C.2     1  UNL1        0.0000
     21 C           5.0313   -1.4815    1.5020 C.2     1  UNL1        0.0000
     22 C           3.3724   -2.7784    0.5114 C.2     1  UNL1        0.0000
     23 C           1.2413    5.1041    1.1902 C.2     1  UNL1        0.0000
     24 C           2.5631    3.4020    0.3266 C.2     1  UNL1        0.0000
     25 C          -3.6877    2.8866   -0.2341 C.2     1  UNL1        0.0000
     26 C          -5.1780    1.5411    0.9323 C.2     1  UNL1        0.0000
     27 C          -0.8307   -4.1320   -0.7218 C.3     1  UNL1        0.0000
     28 C          -0.8283   -4.9859   -2.0024 C.3     1  UNL1        0.0000
     29 C          -1.8924   -4.5968   -3.0341 C.3     1  UNL1        0.0000
     30 C           0.5795   -5.0181   -2.6160 C.3     1  UNL1        0.0000
     31 C           3.9317   -0.5373   -0.5259 C.3     1  UNL1        0.0000
     32 C           4.8079   -0.7182   -1.7812 C.3     1  UNL1        0.0000
     33 C           4.7843    0.5476   -2.6498 C.3     1  UNL1        0.0000
     34 C           4.4935   -1.9796   -2.5928 C.3     1  UNL1        0.0000
     35 C           0.4657    4.0424   -0.9407 C.3     1  UNL1        0.0000
     36 C           0.7980    4.7752   -2.2540 C.3     1  UNL1        0.0000
     37 C           2.0775    4.2942   -2.9469 C.3     1  UNL1        0.0000
     38 C          -0.4097    4.7519   -3.2024 C.3     1  UNL1        0.0000
     39 C          -4.2353    0.6303   -1.2001 C.3     1  UNL1        0.0000
     40 C          -4.7867    0.9185   -2.6085 C.3     1  UNL1        0.0000
     41 C          -4.8801   -0.3912   -3.4034 C.3     1  UNL1        0.0000
     42 C          -6.1580    1.5981   -2.5237 C.3     1  UNL1        0.0000
     43 C          -5.2376    2.7108    3.2095 C.3     1  UNL1        0.0000
     44 C          -5.1342    2.8639    1.6896 C.3     1  UNL1        0.0000
     45 C          -3.8665    3.5466    1.1245 C.3     1  UNL1        0.0000
     46 C          -2.5763    3.2392    1.9333 C.3     1  UNL1        0.0000
     47 C          -2.8011    3.2902    3.4449 C.3     1  UNL1        0.0000
     48 C          -3.9078    2.3135    3.8554 C.3     1  UNL1        0.0000
     49 C           3.4336    6.2043    1.6260 C.3     1  UNL1        0.0000
     50 C           4.5632    3.4514    1.9535 C.3     1  UNL1        0.0000
     51 C           5.3930    4.6309    1.4394 C.3     1  UNL1        0.0000
     52 C           4.8871    5.9498    2.0358 C.3     1  UNL1        0.0000
     53 C           3.0633    3.6580    1.7407 C.3     1  UNL1        0.0000
     54 C           2.4888    5.0556    2.0605 C.3     1  UNL1        0.0000
     55 C           6.4634   -4.1373    0.7597 C.3     1  UNL1        0.0000
     56 C           6.3384   -3.5255    2.1602 C.3     1  UNL1        0.0000
     57 C           4.1238   -5.0197    1.4044 C.3     1  UNL1        0.0000
     58 C           5.3186   -5.1380    0.4407 C.3     1  UNL1        0.0000
     59 C           5.0022   -2.7697    2.3168 C.3     1  UNL1        0.0000
     60 C           3.8001   -3.5602    1.7466 C.3     1  UNL1        0.0000
     61 C          -3.9285   -2.4003    3.5168 C.3     1  UNL1        0.0000
     62 C          -3.6309   -2.2034    2.0303 C.3     1  UNL1        0.0000
     63 C          -3.6029   -4.8938    3.3481 C.3     1  UNL1        0.0000
     64 C          -3.1634   -3.6111    4.0607 C.3     1  UNL1        0.0000
     65 C          -3.5281   -4.7838    1.8227 C.3     1  UNL1        0.0000
     66 C          -3.9918   -3.4555    1.1854 C.3     1  UNL1        0.0000
     67 H          -0.0608   -4.5324   -0.0536 H       1  UNL1        0.0000
     68 H          -1.8509   -5.2890   -3.8815 H       1  UNL1        0.0000
     69 H          -1.7255   -3.5837   -3.4037 H       1  UNL1        0.0000
     70 H          -2.8994   -4.6362   -2.6133 H       1  UNL1        0.0000
     71 H           1.3385   -5.2647   -1.8671 H       1  UNL1        0.0000
     72 H           0.8402   -4.0477   -3.0431 H       1  UNL1        0.0000
     73 H           0.6235   -5.7690   -3.4108 H       1  UNL1        0.0000
     74 H           4.2618    0.3747   -0.0196 H       1  UNL1        0.0000
     75 H           3.8127    0.6729   -3.1310 H       1  UNL1        0.0000
     76 H           5.5507    0.4787   -3.4280 H       1  UNL1        0.0000
     77 H           4.9779    1.4436   -2.0531 H       1  UNL1        0.0000
     78 H           3.4745   -1.9500   -2.9827 H       1  UNL1        0.0000
     79 H           4.5953   -2.8865   -1.9913 H       1  UNL1        0.0000
     80 H           5.1876   -2.0573   -3.4357 H       1  UNL1        0.0000
     81 H          -0.4512    4.4864   -0.5377 H       1  UNL1        0.0000
     82 H           2.9527    4.3918   -2.3011 H       1  UNL1        0.0000
     83 H           2.2519    4.8914   -3.8478 H       1  UNL1        0.0000
     84 H           1.9938    3.2452   -3.2371 H       1  UNL1        0.0000
     85 H          -1.3282    5.0541   -2.6903 H       1  UNL1        0.0000
     86 H          -0.5688    3.7497   -3.6046 H       1  UNL1        0.0000
     87 H          -0.2394    5.4376   -4.0382 H       1  UNL1        0.0000
     88 H          -4.7583   -0.2321   -0.7726 H       1  UNL1        0.0000
     89 H          -5.6051   -1.0705   -2.9402 H       1  UNL1        0.0000
     90 H          -3.9190   -0.9041   -3.4480 H       1  UNL1        0.0000
     91 H          -5.2145   -0.1883   -4.4255 H       1  UNL1        0.0000
     92 H          -6.0969    2.5848   -2.0572 H       1  UNL1        0.0000
     93 H          -6.8628    0.9912   -1.9433 H       1  UNL1        0.0000
     94 H          -6.5749    1.7275   -3.5268 H       1  UNL1        0.0000
     95 H          -1.0583   -5.9991   -1.6445 H       1  UNL1        0.0000
     96 H           5.8243   -0.8192   -1.3760 H       1  UNL1        0.0000
     97 H           0.9533    5.8171   -1.9407 H       1  UNL1        0.0000
     98 H          -4.0852    1.5936   -3.1080 H       1  UNL1        0.0000
     99 H          -6.0136    3.4174    1.3321 H       1  UNL1        0.0000
    100 H          -4.0216    2.2871    4.9444 H       1  UNL1        0.0000
    101 H          -6.0160    1.9726    3.4259 H       1  UNL1        0.0000
    102 H          -2.2252    2.2366    1.6674 H       1  UNL1        0.0000
    103 H          -1.7949    3.9364    1.6219 H       1  UNL1        0.0000
    104 H          -3.0745    4.3079    3.7557 H       1  UNL1        0.0000
    105 H          -1.8620    3.0470    3.9547 H       1  UNL1        0.0000
    106 H          -3.6326    1.2977    3.5394 H       1  UNL1        0.0000
    107 H          -5.5676    3.6663    3.6343 H       1  UNL1        0.0000
    108 H          -3.9870    4.6269    1.0136 H       1  UNL1        0.0000
    109 H           5.5096    6.7877    1.7035 H       1  UNL1        0.0000
    110 H           3.0560    7.1461    2.0347 H       1  UNL1        0.0000
    111 H           4.7429    3.3314    3.0286 H       1  UNL1        0.0000
    112 H           4.8660    2.5129    1.4794 H       1  UNL1        0.0000
    113 H           5.3284    4.6785    0.3438 H       1  UNL1        0.0000
    114 H           6.4482    4.4750    1.6858 H       1  UNL1        0.0000
    115 H           4.9662    5.9113    3.1310 H       1  UNL1        0.0000
    116 H           3.3965    6.2994    0.5328 H       1  UNL1        0.0000
    117 H           2.5148    2.9159    2.3389 H       1  UNL1        0.0000
    118 H           2.2167    5.1702    3.1122 H       1  UNL1        0.0000
    119 H           6.3920   -4.3112    2.9221 H       1  UNL1        0.0000
    120 H           7.1601   -2.8303    2.3568 H       1  UNL1        0.0000
    121 H           4.9678   -4.9746   -0.5837 H       1  UNL1        0.0000
    122 H           7.4359   -4.6280    0.6579 H       1  UNL1        0.0000
    123 H           3.2375   -5.4890    0.9688 H       1  UNL1        0.0000
    124 H           4.3361   -5.5485    2.3399 H       1  UNL1        0.0000
    125 H           5.6935   -6.1659    0.4739 H       1  UNL1        0.0000
    126 H           6.4600   -3.3251    0.0230 H       1  UNL1        0.0000
    127 H           4.8586   -2.4949    3.3655 H       1  UNL1        0.0000
    128 H           2.9487   -3.5273    2.4358 H       1  UNL1        0.0000
    129 H          -4.1667   -1.3432    1.6250 H       1  UNL1        0.0000
    130 H          -2.5608   -1.9956    1.9109 H       1  UNL1        0.0000
    131 H          -2.0864   -3.4570    3.9098 H       1  UNL1        0.0000
    132 H          -5.0070   -2.5427    3.6705 H       1  UNL1        0.0000
    133 H          -2.9911   -5.7453    3.6614 H       1  UNL1        0.0000
    134 H          -4.6395   -5.1180    3.6273 H       1  UNL1        0.0000
    135 H          -3.3195   -3.7201    5.1394 H       1  UNL1        0.0000
    136 H          -3.6515   -1.4910    4.0624 H       1  UNL1        0.0000
    137 H          -4.1146   -5.6027    1.3833 H       1  UNL1        0.0000
    138 H          -5.0584   -3.4484    0.9488 H       1  UNL1        0.0000
    139 O           0.2436    5.7819    1.3302 O.2     1  UNL1        0.0000
    140 O           2.9733    2.5784   -0.4683 O.2     1  UNL1        0.0000
    141 O           5.7350   -0.5073    1.6823 O.2     1  UNL1        0.0000
    142 O           2.5224   -3.0980   -0.2982 O.2     1  UNL1        0.0000
    143 O          -1.2124   -5.6278    1.6891 O.2     1  UNL1        0.0000
    144 O          -3.3258   -2.6082   -1.0219 O.2     1  UNL1        0.0000
    145 O          -2.9427    3.2194   -1.1370 O.2     1  UNL1        0.0000
    146 O          -5.7596    0.5199    1.2431 O.2     1  UNL1        0.0000
@<TRIPOS>BOND
     1     1     7    1
     2     1     9    1
     3     2    12    1
     4     2     8    1
     5     2    10    1
     6     2     1    1
     7     3    31    1
     8     3     9    1
     9     4    39    1
    10     4    13    1
    11     5    35    1
    12     5    11    1
    13     6    27    1
    14     6     7    1
    15     8     6    1
    16    10     3    1
    17    11     1    1
    18    12     5    1
    19    13     1    1
    20    14     2    1
    21    14     4    1
    22    15    20   am
    23    16    22   am
    24    16    21   am
    25    17    24   am
    26    17    23   am
    27    18    25   am
    28    18    26   am
    29    19    15   am
    30    19    66    1
    31    20   143    2
    32    20    65    1
    33    21   141    2
    34    21    59    1
    35    22    60    1
    36    23   139    2
    37    23    54    1
    38    24    53    1
    39    25    45    1
    40    26   146    2
    41    26    44    1
    42    27    67    1
    43    27    15    1
    44    28    95    1
    45    28    27    1
    46    29    70    1
    47    29    28    1
    48    30    28    1
    49    30    71    1
    50    31    74    1
    51    31    16    1
    52    32    96    1
    53    32    31    1
    54    33    77    1
    55    33    32    1
    56    34    79    1
    57    34    32    1
    58    35    81    1
    59    35    17    1
    60    36    97    1
    61    36    35    1
    62    37    82    1
    63    37    36    1
    64    38    85    1
    65    38    36    1
    66    39    88    1
    67    39    18    1
    68    40    42    1
    69    40    39    1
    70    41    89    1
    71    41    40    1
    72    42    92    1
    73    42    93    1
    74    43   101    1
    75    43   107    1
    76    43    48    1
    77    44    99    1
    78    44    43    1
    79    45   108    1
    80    45    44    1
    81    45    46    1
    82    46    47    1
    83    47   104    1
    84    47    48    1
    85    47   105    1
    86    48   100    1
    87    49   110    1
    88    49    52    1
    89    49    54    1
    90    50   111    1
    91    51   114    1
    92    51    50    1
    93    51    52    1
    94    52   115    1
    95    53    50    1
    96    53    54    1
    97    53   117    1
    98    54   118    1
    99    55    56    1
   100    56    59    1
   101    56   120    1
   102    56   119    1
   103    57    60    1
   104    57   124    1
   105    58   125    1
   106    58    55    1
   107    58    57    1
   108    59   127    1
   109    60    59    1
   110    60   128    1
   111    61   132    1
   112    61    64    1
   113    61   136    1
   114    62    61    1
   115    63   134    1
   116    63   133    1
   117    63    64    1
   118    64   135    1
   119    65   137    1
   120    65    63    1
   121    66   138    1
   122    66    65    1
   123    66    62    1
   124    68    29    1
   125    69    29    1
   126    72    30    1
   127    73    30    1
   128    75    33    1
   129    76    33    1
   130    78    34    1
   131    80    34    1
   132    83    37    1
   133    84    37    1
   134    86    38    1
   135    87    38    1
   136    90    41    1
   137    91    41    1
   138    94    42    1
   139    98    40    1
   140   102    46    1
   141   103    46    1
   142   106    48    1
   143   109    52    1
   144   112    50    1
   145   113    51    1
   146   116    49    1
   147   121    58    1
   148   122    55    1
   149   123    57    1
   150   126    55    1
   151   129    62    1
   152   130    62    1
   153   131    64    1
   154   140    24    2
   155   142    22    2
   156   144    19    2
   157   145    25    2
