@<TRIPOS>MOLECULE
RhRh_ACyPropyl4_19
 102 117 0 0 0
SMALL
GASTEIGER

@<TRIPOS>ATOM
      1 Rh         -1.4614   -0.4608   -1.3039 Rh      1  UNL1        0.0000
      2 Rh         -0.0922   -0.0772    0.6210 Rh      1  UNL1        0.0000
      3 C          -2.8185   -0.8195    1.2064 C.3     1  UNL1        0.0000
      4 C           0.2047   -2.6896   -0.5098 C.3     1  UNL1        0.0000
      5 C           1.2135    0.4793   -1.8811 C.3     1  UNL1        0.0000
      6 C          -1.5806    2.2245   -0.2989 C.3     1  UNL1        0.0000
      7 O          -0.6533   -2.3657   -1.3898 O.3     1  UNL1        0.0000
      8 O           0.4925   -2.0324    0.5418 O.3     1  UNL1        0.0000
      9 O           0.1050    0.2281   -2.4555 O.3     1  UNL1        0.0000
     10 O           1.4584    0.3544   -0.6398 O.3     1  UNL1        0.0000
     11 O          -0.6940    1.8785    0.5468 O.3     1  UNL1        0.0000
     12 O          -2.1512    1.4645   -1.1437 O.3     1  UNL1        0.0000
     13 O          -1.7330   -0.5127    1.7920 O.3     1  UNL1        0.0000
     14 O          -2.9759   -1.0235   -0.0403 O.3     1  UNL1        0.0000
     15 N           2.1290   -4.0317    0.1426 N.am    1  UNL1        0.0000
     16 N           3.6270    0.8419   -2.1742 N.am    1  UNL1        0.0000
     17 N          -0.9597    4.4845    0.3269 N.am    1  UNL1        0.0000
     18 N          -5.2520   -1.0396    1.3001 N.am    1  UNL1        0.0000
     19 C           0.9958   -3.9429   -0.7243 C.3     1  UNL1        0.0000
     20 C           0.2914   -5.2120   -1.1619 C.3     1  UNL1        0.0000
     21 C           1.1368   -4.4684   -2.1408 C.3     1  UNL1        0.0000
     22 C           2.1221   -4.6557    1.4099 C.2     1  UNL1        0.0000
     23 C           3.3315   -4.1361    2.1137 C.ar    1  UNL1        0.0000
     24 C           3.8336   -4.4452    3.3685 C.ar    1  UNL1        0.0000
     25 C           4.9774   -3.7569    3.7917 C.ar    1  UNL1        0.0000
     26 C           5.5846   -2.7926    2.9771 C.ar    1  UNL1        0.0000
     27 C           5.0716   -2.4870    1.7110 C.ar    1  UNL1        0.0000
     28 C           3.9422   -3.1790    1.3008 C.ar    1  UNL1        0.0000
     29 C           3.1559   -3.0654    0.0452 C.2     1  UNL1        0.0000
     30 C           2.3220    1.0282   -2.7247 C.3     1  UNL1        0.0000
     31 C           2.1736    1.0655   -4.2275 C.3     1  UNL1        0.0000
     32 C           2.0201    2.3328   -3.4557 C.3     1  UNL1        0.0000
     33 C           4.1234    1.5724   -1.0770 C.2     1  UNL1        0.0000
     34 C           5.3853    0.8815   -0.6785 C.ar    1  UNL1        0.0000
     35 C           6.2766    1.1748    0.3429 C.ar    1  UNL1        0.0000
     36 C           7.3982    0.3471    0.4782 C.ar    1  UNL1        0.0000
     37 C           7.6090   -0.7310   -0.3924 C.ar    1  UNL1        0.0000
     38 C           6.7022   -1.0171   -1.4205 C.ar    1  UNL1        0.0000
     39 C           5.5929   -0.1949   -1.5402 C.ar    1  UNL1        0.0000
     40 C           4.4635   -0.2484   -2.5128 C.2     1  UNL1        0.0000
     41 C          -1.9662    3.6701   -0.2792 C.3     1  UNL1        0.0000
     42 C          -3.4319    4.0271   -0.1023 C.3     1  UNL1        0.0000
     43 C          -2.7717    4.2375   -1.4263 C.3     1  UNL1        0.0000
     44 C          -0.8898    4.7733    1.7088 C.2     1  UNL1        0.0000
     45 C           0.5168    5.2054    1.9519 C.ar    1  UNL1        0.0000
     46 C           1.1244    5.6370    3.1209 C.ar    1  UNL1        0.0000
     47 C           2.4946    5.9197    3.0664 C.ar    1  UNL1        0.0000
     48 C           3.2201    5.7605    1.8787 C.ar    1  UNL1        0.0000
     49 C           2.5990    5.3244    0.7028 C.ar    1  UNL1        0.0000
     50 C           1.2389    5.0634    0.7650 C.ar    1  UNL1        0.0000
     51 C           0.3128    4.5699   -0.2857 C.2     1  UNL1        0.0000
     52 C          -4.0457   -0.9309    2.0546 C.3     1  UNL1        0.0000
     53 C          -4.0896   -0.1479    3.3550 C.3     1  UNL1        0.0000
     54 C          -3.9527   -1.6322    3.3970 C.3     1  UNL1        0.0000
     55 C          -5.7448    0.0563    0.5615 C.2     1  UNL1        0.0000
     56 C          -6.7920   -0.5029   -0.3364 C.ar    1  UNL1        0.0000
     57 C          -7.6285    0.1355   -1.2390 C.ar    1  UNL1        0.0000
     58 C          -8.5161   -0.6633   -1.9700 C.ar    1  UNL1        0.0000
     59 C          -8.5532   -2.0521   -1.7920 C.ar    1  UNL1        0.0000
     60 C          -7.7038   -2.6871   -0.8776 C.ar    1  UNL1        0.0000
     61 C          -6.8284   -1.8876   -0.1593 C.ar    1  UNL1        0.0000
     62 C          -5.8029   -2.2624    0.8565 C.2     1  UNL1        0.0000
     63 H           0.6614   -6.1294   -0.7217 H       1  UNL1        0.0000
     64 H          -0.7865   -5.1398   -1.2519 H       1  UNL1        0.0000
     65 H           0.6501   -3.8814   -2.9095 H       1  UNL1        0.0000
     66 H           2.1147   -4.8624   -2.3913 H       1  UNL1        0.0000
     67 H           5.5300   -1.7388    1.0763 H       1  UNL1        0.0000
     68 H           3.0822    0.8947   -4.7907 H       1  UNL1        0.0000
     69 H           1.2839    0.5876   -4.6187 H       1  UNL1        0.0000
     70 H           1.0351    2.7510   -3.2937 H       1  UNL1        0.0000
     71 H           2.8275    3.0554   -3.4555 H       1  UNL1        0.0000
     72 H           6.1009    2.0141    1.0071 H       1  UNL1        0.0000
     73 H           8.4874   -1.3554   -0.2624 H       1  UNL1        0.0000
     74 H           6.8467   -1.8523   -2.0970 H       1  UNL1        0.0000
     75 H          -3.6250    4.8807    0.5354 H       1  UNL1        0.0000
     76 H          -4.1117    3.1905    0.0181 H       1  UNL1        0.0000
     77 H          -2.9938    3.5487   -2.2321 H       1  UNL1        0.0000
     78 H          -2.5073    5.2460   -1.7222 H       1  UNL1        0.0000
     79 H           3.1524    5.1587   -0.2132 H       1  UNL1        0.0000
     80 H          -5.0491    0.2948    3.5952 H       1  UNL1        0.0000
     81 H          -3.2198    0.4620    3.5652 H       1  UNL1        0.0000
     82 H          -2.9835   -2.0542    3.6357 H       1  UNL1        0.0000
     83 H          -4.8068   -2.2401    3.6682 H       1  UNL1        0.0000
     84 H          -7.5871    1.2115   -1.3693 H       1  UNL1        0.0000
     85 H          -9.2507   -2.6441   -2.3759 H       1  UNL1        0.0000
     86 H          -7.7190   -3.7619   -0.7336 H       1  UNL1        0.0000
     87 O          -5.3562    1.2012    0.6683 O.2     1  UNL1        0.0000
     88 O          -5.4860   -3.3641    1.2494 O.2     1  UNL1        0.0000
     89 O          -1.8024    4.6776    2.5011 O.2     1  UNL1        0.0000
     90 O           0.5406    4.2718   -1.4398 O.2     1  UNL1        0.0000
     91 O           3.6263    2.5694   -0.5974 O.2     1  UNL1        0.0000
     92 O           4.2915   -1.0165   -3.4318 O.2     1  UNL1        0.0000
     93 O           1.2922   -5.4444    1.8078 O.2     1  UNL1        0.0000
     94 O           3.3041   -2.3067   -0.8889 O.2     1  UNL1        0.0000
     95 H           3.3474   -5.1859    3.9941 H       1  UNL1        0.0000
     96 H           5.3980   -3.9680    4.7699 H       1  UNL1        0.0000
     97 H           6.4659   -2.2703    3.3361 H       1  UNL1        0.0000
     98 H           8.1178    0.5425    1.2670 H       1  UNL1        0.0000
     99 H           0.5546    5.7380    4.0382 H       1  UNL1        0.0000
    100 H           3.0077    6.2569    3.9617 H       1  UNL1        0.0000
    101 H           4.2850    5.9708    1.8748 H       1  UNL1        0.0000
    102 H          -9.1855   -0.2015   -2.6887 H       1  UNL1        0.0000
@<TRIPOS>BOND
     1     1    12    1
     2     1    14    1
     3     1     2    1
     4     2    13    1
     5     3    13    1
     6     3    52    1
     7     4     8    1
     8     5    10    1
     9     6    41    1
    10     6    11    1
    11     7     1    1
    12     7     4    1
    13     8     2    1
    14     9     5    1
    15     9     1    1
    16    10     2    1
    17    11     2    1
    18    12     6    1
    19    14     3    1
    20    15    22   am
    21    16    33   am
    22    17    44   am
    23    18    52    1
    24    19     4    1
    25    19    15    1
    26    20    19    1
    27    20    63    1
    28    21    20    1
    29    21    19    1
    30    22    93    2
    31    22    23    1
    32    23    24   ar
    33    24    25   ar
    34    24    95    1
    35    25    96    1
    36    26    97    1
    37    26    25   ar
    38    27    26   ar
    39    28    27   ar
    40    28    23   ar
    41    29    15   am
    42    29    28    1
    43    30    16    1
    44    30     5    1
    45    31    32    1
    46    31    30    1
    47    32    71    1
    48    32    70    1
    49    32    30    1
    50    33    34    1
    51    33    91    2
    52    34    35   ar
    53    35    36   ar
    54    35    72    1
    55    36    98    1
    56    37    73    1
    57    37    36   ar
    58    38    37   ar
    59    39    38   ar
    60    39    34   ar
    61    40    16   am
    62    40    39    1
    63    41    42    1
    64    41    17    1
    65    42    76    1
    66    42    75    1
    67    43    41    1
    68    43    42    1
    69    44    45    1
    70    44    89    2
    71    45    46   ar
    72    46    99    1
    73    47    46   ar
    74    47   100    1
    75    48    47   ar
    76    49    50   ar
    77    49    48   ar
    78    50    45   ar
    79    51    17   am
    80    51    50    1
    81    52    53    1
    82    52    54    1
    83    53    54    1
    84    53    81    1
    85    53    80    1
    86    54    82    1
    87    54    83    1
    88    55    87    2
    89    55    18   am
    90    56    61   ar
    91    56    55    1
    92    57    56   ar
    93    58    59   ar
    94    58    57   ar
    95    59    60   ar
    96    60    86    1
    97    60    61   ar
    98    61    62    1
    99    62    88    2
   100    62    18   am
   101    64    20    1
   102    65    21    1
   103    66    21    1
   104    67    27    1
   105    68    31    1
   106    69    31    1
   107    74    38    1
   108    77    43    1
   109    78    43    1
   110    79    49    1
   111    84    57    1
   112    85    59    1
   113    90    51    2
   114    92    40    2
   115    94    29    2
   116   101    48    1
   117   102    58    1
