@<TRIPOS>MOLECULE
RhRh_ACB4_16_sp
 114 129 0 0 0
SMALL
GASTEIGER

@<TRIPOS>ATOM
      1 Rh         -0.1011   -0.5258   -2.1900 Rh      1  UNL1        0.0000
      2 Rh         -0.4548   -0.3944    0.1739 Rh      1  UNL1        0.0000
      3 C          -2.0618   -2.3796   -1.1881 C.3     1  UNL1        0.0000
      4 C           1.3656    1.5826   -0.8374 C.3     1  UNL1        0.0000
      5 C           1.7364   -2.0948   -0.6261 C.3     1  UNL1        0.0000
      6 C          -2.2095    1.2801   -1.4037 C.3     1  UNL1        0.0000
      7 O          -1.6735    0.7790   -2.4383 O.3     1  UNL1        0.0000
      8 O          -1.9459    0.9743   -0.1973 O.3     1  UNL1        0.0000
      9 O           1.1582    1.0825   -1.9865 O.3     1  UNL1        0.0000
     10 O           0.8857    1.1589    0.2604 O.3     1  UNL1        0.0000
     11 O           1.4600   -1.8088   -1.8306 O.3     1  UNL1        0.0000
     12 O           1.0783   -1.7427    0.4021 O.3     1  UNL1        0.0000
     13 O          -1.4395   -2.1005   -2.2578 O.3     1  UNL1        0.0000
     14 O          -1.8173   -1.9122   -0.0317 O.3     1  UNL1        0.0000
     15 N          -3.3506    3.1745   -0.4249 N.am    1  UNL1        0.0000
     16 N           3.6592    2.4172   -0.7142 N.am    1  UNL1        0.0000
     17 N           3.4859   -2.6435    0.9375 N.am    1  UNL1        0.0000
     18 N          -4.1323   -3.0800   -0.1792 N.am    1  UNL1        0.0000
     19 C          -3.2718    2.3512   -1.6308 C.3     1  UNL1        0.0000
     20 C          -4.6456    1.8578   -2.1926 C.3     1  UNL1        0.0000
     21 C          -4.6604    3.0652   -3.1561 C.3     1  UNL1        0.0000
     22 C          -3.1406    3.2215   -2.9175 C.3     1  UNL1        0.0000
     23 C          -4.2338    3.0309    0.6643 C.2     1  UNL1        0.0000
     24 C          -3.6562    3.8546    1.7666 C.ar    1  UNL1        0.0000
     25 C          -4.1410    4.0963    3.0419 C.ar    1  UNL1        0.0000
     26 C          -3.3593    4.8961    3.8851 C.ar    1  UNL1        0.0000
     27 C          -2.1377    5.4271    3.4521 C.ar    1  UNL1        0.0000
     28 C          -1.6576    5.1771    2.1606 C.ar    1  UNL1        0.0000
     29 C          -2.4412    4.3847    1.3359 C.ar    1  UNL1        0.0000
     30 C          -2.2079    3.9123   -0.0511 C.2     1  UNL1        0.0000
     31 C           2.2502    2.8294   -0.7810 C.3     1  UNL1        0.0000
     32 C           1.8511    3.9101    0.2676 C.3     1  UNL1        0.0000
     33 C           2.0089    4.9980   -0.8199 C.3     1  UNL1        0.0000
     34 C           1.9776    3.8866   -1.8944 C.3     1  UNL1        0.0000
     35 C           4.4263    2.2631    0.4581 C.2     1  UNL1        0.0000
     36 C           5.7454    1.7263    0.0213 C.ar    1  UNL1        0.0000
     37 C           6.8715    1.4198    0.7680 C.ar    1  UNL1        0.0000
     38 C           7.9662    0.8750    0.0857 C.ar    1  UNL1        0.0000
     39 C           7.9191    0.6519   -1.2963 C.ar    1  UNL1        0.0000
     40 C           6.7757    0.9690   -2.0394 C.ar    1  UNL1        0.0000
     41 C           5.7001    1.5081   -1.3514 C.ar    1  UNL1        0.0000
     42 C           4.3590    1.9197   -1.8453 C.2     1  UNL1        0.0000
     43 C           2.9699   -2.9660   -0.3803 C.3     1  UNL1        0.0000
     44 C           3.9851   -2.9169   -1.5559 C.3     1  UNL1        0.0000
     45 C           3.3469   -4.2086   -2.1254 C.3     1  UNL1        0.0000
     46 C           2.7035   -4.4622   -0.7389 C.3     1  UNL1        0.0000
     47 C           3.8218   -1.3057    1.2015 C.2     1  UNL1        0.0000
     48 C           4.0511   -1.2077    2.6646 C.ar    1  UNL1        0.0000
     49 C           4.4176   -0.1250    3.4517 C.ar    1  UNL1        0.0000
     50 C           4.5368   -0.3533    4.8290 C.ar    1  UNL1        0.0000
     51 C           4.2908   -1.6155    5.3827 C.ar    1  UNL1        0.0000
     52 C           3.9066   -2.6959    4.5780 C.ar    1  UNL1        0.0000
     53 C           3.7926   -2.4648    3.2169 C.ar    1  UNL1        0.0000
     54 C           3.3670   -3.3918    2.1258 C.2     1  UNL1        0.0000
     55 C          -3.2214   -3.3753   -1.2714 C.3     1  UNL1        0.0000
     56 C          -2.7231   -4.8448   -1.4430 C.3     1  UNL1        0.0000
     57 C          -2.9389   -4.7039   -2.9705 C.3     1  UNL1        0.0000
     58 C          -3.8372   -3.4725   -2.6934 C.3     1  UNL1        0.0000
     59 C          -4.7154   -1.7981   -0.1242 C.2     1  UNL1        0.0000
     60 C          -5.2380   -1.6345    1.2556 C.ar    1  UNL1        0.0000
     61 C          -5.9124   -0.5715    1.8377 C.ar    1  UNL1        0.0000
     62 C          -6.2463   -0.6968    3.1922 C.ar    1  UNL1        0.0000
     63 C          -5.9088   -1.8437    3.9218 C.ar    1  UNL1        0.0000
     64 C          -5.2155   -2.9039    3.3241 C.ar    1  UNL1        0.0000
     65 C          -4.8884   -2.7732    1.9838 C.ar    1  UNL1        0.0000
     66 C          -4.1132   -3.6875    1.0952 C.2     1  UNL1        0.0000
     67 H          -4.4851    0.9136   -2.7126 H       1  UNL1        0.0000
     68 H          -5.4454    1.7333   -1.4702 H       1  UNL1        0.0000
     69 H          -5.2282    3.9062   -2.7479 H       1  UNL1        0.0000
     70 H          -4.9901    2.8825   -4.1813 H       1  UNL1        0.0000
     71 H          -2.7283    4.2195   -2.7748 H       1  UNL1        0.0000
     72 H          -2.5443    2.6844   -3.6555 H       1  UNL1        0.0000
     73 H          -1.5535    6.0392    4.1316 H       1  UNL1        0.0000
     74 H          -0.7107    5.5774    1.8150 H       1  UNL1        0.0000
     75 H           0.8063    3.7622    0.5366 H       1  UNL1        0.0000
     76 H           2.4587    3.9664    1.1653 H       1  UNL1        0.0000
     77 H           1.2162    5.7468   -0.8751 H       1  UNL1        0.0000
     78 H           2.9778    5.5028   -0.7684 H       1  UNL1        0.0000
     79 H           2.6928    3.9189   -2.7134 H       1  UNL1        0.0000
     80 H           0.9756    3.7375   -2.2981 H       1  UNL1        0.0000
     81 H           8.8665    0.6180    0.6351 H       1  UNL1        0.0000
     82 H           8.7830    0.2251   -1.7958 H       1  UNL1        0.0000
     83 H           6.7214    0.7989   -3.1092 H       1  UNL1        0.0000
     84 H           3.9672   -2.0144   -2.1649 H       1  UNL1        0.0000
     85 H           4.9931   -3.0872   -1.1704 H       1  UNL1        0.0000
     86 H           2.6033   -3.9841   -2.8916 H       1  UNL1        0.0000
     87 H           4.0265   -4.9792   -2.4956 H       1  UNL1        0.0000
     88 H           3.3044   -5.1119   -0.1052 H       1  UNL1        0.0000
     89 H           1.6642   -4.7933   -0.6899 H       1  UNL1        0.0000
     90 H           4.5706    0.8571    3.0166 H       1  UNL1        0.0000
     91 H           4.8165    0.4673    5.4822 H       1  UNL1        0.0000
     92 H           4.3894   -1.7549    6.4547 H       1  UNL1        0.0000
     93 H           3.6960   -3.6749    4.9944 H       1  UNL1        0.0000
     94 H          -1.7235   -5.0671   -1.0654 H       1  UNL1        0.0000
     95 H          -3.4291   -5.5321   -0.9790 H       1  UNL1        0.0000
     96 H          -2.0226   -4.4224   -3.4921 H       1  UNL1        0.0000
     97 H          -3.3987   -5.5531   -3.4804 H       1  UNL1        0.0000
     98 H          -4.8936   -3.7380   -2.6140 H       1  UNL1        0.0000
     99 H          -3.7227   -2.5926   -3.3243 H       1  UNL1        0.0000
    100 H          -6.1380    0.3255    1.2735 H       1  UNL1        0.0000
    101 H          -4.9321   -3.7902    3.8814 H       1  UNL1        0.0000
    102 O           3.9320    1.8593   -2.9778 O.2     1  UNL1        0.0000
    103 O           4.0909    2.5309    1.5971 O.2     1  UNL1        0.0000
    104 O           3.8696   -0.4472    0.3396 O.2     1  UNL1        0.0000
    105 O           2.9963   -4.5429    2.2236 O.2     1  UNL1        0.0000
    106 O          -3.5679   -4.7316    1.3851 O.2     1  UNL1        0.0000
    107 O          -4.7261   -1.0139   -1.0538 O.2     1  UNL1        0.0000
    108 O          -1.2292    4.0758   -0.7555 O.2     1  UNL1        0.0000
    109 O          -5.2617    2.3842    0.6989 O.2     1  UNL1        0.0000
    110 H          -5.0852    3.6733    3.3670 H       1  UNL1        0.0000
    111 H          -3.7016    5.1060    4.8935 H       1  UNL1        0.0000
    112 H           6.8948    1.5897    1.8389 H       1  UNL1        0.0000
    113 H          -6.7704    0.1139    3.6886 H       1  UNL1        0.0000
    114 H          -6.1806   -1.9060    4.9709 H       1  UNL1        0.0000
@<TRIPOS>BOND
     1     1     9    1
     2     1    11    1
     3     1     2    1
     4     2    10    1
     5     2    12    1
     6     3    14    1
     7     4    31    1
     8     4    10    1
     9     5    43    1
    10     5    12    1
    11     6     8    1
    12     7     1    1
    13     7     6    1
    14     8     2    1
    15     9     4    1
    16    11     5    1
    17    13     1    1
    18    13     3    1
    19    14     2    1
    20    15    30   am
    21    15    23   am
    22    16    35   am
    23    17    47   am
    24    17    54   am
    25    18    59   am
    26    18    66   am
    27    19     6    1
    28    19    15    1
    29    20    19    1
    30    20    68    1
    31    21    22    1
    32    21    69    1
    33    21    20    1
    34    22    71    1
    35    22    19    1
    36    23   109    2
    37    23    24    1
    38    24    25   ar
    39    25   110    1
    40    25    26   ar
    41    26   111    1
    42    27    26   ar
    43    27    73    1
    44    28    27   ar
    45    29    24   ar
    46    29    28   ar
    47    30    29    1
    48    31    16    1
    49    31    32    1
    50    32    75    1
    51    32    76    1
    52    33    78    1
    53    33    32    1
    54    34    33    1
    55    34    31    1
    56    35   103    2
    57    36    35    1
    58    36    37   ar
    59    37   112    1
    60    38    81    1
    61    38    37   ar
    62    39    38   ar
    63    40    41   ar
    64    40    39   ar
    65    41    36   ar
    66    42    41    1
    67    42    16   am
    68    43    17    1
    69    44    85    1
    70    44    43    1
    71    45    44    1
    72    45    46    1
    73    46    89    1
    74    46    43    1
    75    46    88    1
    76    47    48    1
    77    48    53   ar
    78    48    49   ar
    79    49    50   ar
    80    50    51   ar
    81    50    91    1
    82    51    92    1
    83    52    93    1
    84    52    51   ar
    85    53    52   ar
    86    54   105    2
    87    54    53    1
    88    55     3    1
    89    55    18    1
    90    56    55    1
    91    56    94    1
    92    56    95    1
    93    57    58    1
    94    57    56    1
    95    58    98    1
    96    58    55    1
    97    59    60    1
    98    60    61   ar
    99    60    65   ar
   100    61    62   ar
   101    62   113    1
   102    62    63   ar
   103    63   114    1
   104    64   101    1
   105    64    63   ar
   106    65    64   ar
   107    66   106    2
   108    66    65    1
   109    67    20    1
   110    70    21    1
   111    72    22    1
   112    74    28    1
   113    77    33    1
   114    79    34    1
   115    80    34    1
   116    82    39    1
   117    83    40    1
   118    84    44    1
   119    86    45    1
   120    87    45    1
   121    90    49    1
   122    96    57    1
   123    97    57    1
   124    99    58    1
   125   100    61    1
   126   102    42    2
   127   104    47    2
   128   107    59    2
   129   108    30    2
