@<TRIPOS>MOLECULE
RhRh_anthracenyl-O2C4_2_sp
 106 121 0 0 0
SMALL
GASTEIGER

@<TRIPOS>ATOM
      1 Rh          0.0100   -0.2366   -1.1728 Rh      1  UNL1        0.0000
      2 Rh         -0.0105    0.2371    1.1726 Rh      1  UNL1        0.0000
      3 C          -1.8704    1.8103   -0.4125 C.3     1  UNL1        0.0000
      4 C          -2.0327   -1.6494    0.3219 C.3     1  UNL1        0.0000
      5 C           1.8699   -1.8099    0.4124 C.3     1  UNL1        0.0000
      6 C           2.0325    1.6498   -0.3221 C.3     1  UNL1        0.0000
      7 O           1.5498    1.5334    0.8556 O.3     1  UNL1        0.0000
      8 O           1.5427    1.1212   -1.3712 O.3     1  UNL1        0.0000
      9 O          -1.4335    1.6735    0.7792 O.3     1  UNL1        0.0000
     10 O          -1.4097    1.2245   -1.4424 O.3     1  UNL1        0.0000
     11 O          -1.5502   -1.5329   -0.8558 O.3     1  UNL1        0.0000
     12 O          -1.5430   -1.1208    1.3709 O.3     1  UNL1        0.0000
     13 O           1.4330   -1.6731   -0.7794 O.3     1  UNL1        0.0000
     14 O           1.4093   -1.2239    1.4423 O.3     1  UNL1        0.0000
     15 C           3.2947    2.4301   -0.4519 C.ar    1  UNL1        0.0000
     16 C           4.4173    1.8143   -1.0548 C.ar    1  UNL1        0.0000
     17 C           5.6710    2.5303   -1.0660 C.ar    1  UNL1        0.0000
     18 C           5.7285    3.8271   -0.5493 C.ar    1  UNL1        0.0000
     19 C           4.6138    4.4502    0.0180 C.ar    1  UNL1        0.0000
     20 C           4.6885    5.7789    0.5375 C.ar    1  UNL1        0.0000
     21 C           2.3725    5.6574    1.2134 C.ar    1  UNL1        0.0000
     22 C           3.6004    6.3704    1.1179 C.ar    1  UNL1        0.0000
     23 C           2.2570    4.3839    0.7223 C.ar    1  UNL1        0.0000
     24 C           3.3674    3.7293    0.1007 C.ar    1  UNL1        0.0000
     25 C          -3.0569    2.6998   -0.5747 C.ar    1  UNL1        0.0000
     26 C          -4.2892    2.1237   -0.9501 C.ar    1  UNL1        0.0000
     27 C          -5.4729    2.9492   -0.9127 C.ar    1  UNL1        0.0000
     28 C          -5.3583    4.3028   -0.5807 C.ar    1  UNL1        0.0000
     29 C          -4.1261    4.8882   -0.2741 C.ar    1  UNL1        0.0000
     30 C          -4.0049    6.2792    0.0280 C.ar    1  UNL1        0.0000
     31 C          -2.7881    6.8329    0.3206 C.ar    1  UNL1        0.0000
     32 C          -1.6168    6.0229    0.3305 C.ar    1  UNL1        0.0000
     33 C          -1.6922    4.6827    0.0622 C.ar    1  UNL1        0.0000
     34 C          -2.9428    4.0653   -0.2505 C.ar    1  UNL1        0.0000
     35 C          -3.2946   -2.4305    0.4519 C.ar    1  UNL1        0.0000
     36 C          -4.4173   -1.8154    1.0553 C.ar    1  UNL1        0.0000
     37 C          -5.6704   -2.5322    1.0671 C.ar    1  UNL1        0.0000
     38 C          -5.7274   -3.8290    0.5504 C.ar    1  UNL1        0.0000
     39 C          -4.6126   -4.4514   -0.0175 C.ar    1  UNL1        0.0000
     40 C          -4.6867   -5.7801   -0.5370 C.ar    1  UNL1        0.0000
     41 C          -2.3711   -5.6571   -1.2140 C.ar    1  UNL1        0.0000
     42 C          -3.5986   -6.3709   -1.1180 C.ar    1  UNL1        0.0000
     43 C          -2.2562   -4.3836   -0.7229 C.ar    1  UNL1        0.0000
     44 C          -3.3667   -3.7297   -0.1007 C.ar    1  UNL1        0.0000
     45 C           3.0565   -2.6992    0.5745 C.ar    1  UNL1        0.0000
     46 C           4.2888   -2.1231    0.9500 C.ar    1  UNL1        0.0000
     47 C           5.4726   -2.9483    0.9123 C.ar    1  UNL1        0.0000
     48 C           5.3582   -4.3018    0.5798 C.ar    1  UNL1        0.0000
     49 C           4.1261   -4.8873    0.2732 C.ar    1  UNL1        0.0000
     50 C           4.0052   -6.2783   -0.0293 C.ar    1  UNL1        0.0000
     51 C           2.7884   -6.8322   -0.3218 C.ar    1  UNL1        0.0000
     52 C           1.6170   -6.0224   -0.3314 C.ar    1  UNL1        0.0000
     53 C           1.6921   -4.6822   -0.0627 C.ar    1  UNL1        0.0000
     54 C           2.9426   -4.0647    0.2500 C.ar    1  UNL1        0.0000
     55 C          -5.6658    0.2236   -1.6017 C.ar    1  UNL1        0.0000
     56 C           4.4327   -0.7501    1.3243 C.ar    1  UNL1        0.0000
     57 C           6.7382   -2.3539    1.2058 C.ar    1  UNL1        0.0000
     58 C           6.8351   -1.0285    1.5322 C.ar    1  UNL1        0.0000
     59 C           5.6651   -0.2230    1.6024 C.ar    1  UNL1        0.0000
     60 C          -4.4029   -0.4888    1.5942 C.ar    1  UNL1        0.0000
     61 C          -6.8360   -1.8946    1.5927 C.ar    1  UNL1        0.0000
     62 C          -5.5447    0.0861    2.0836 C.ar    1  UNL1        0.0000
     63 C          -6.7797   -0.6187    2.0818 C.ar    1  UNL1        0.0000
     64 C           6.8364    1.8918   -1.5909 C.ar    1  UNL1        0.0000
     65 C           6.7795    0.6160   -2.0798 C.ar    1  UNL1        0.0000
     66 C           5.5441   -0.0881   -2.0823 C.ar    1  UNL1        0.0000
     67 C           4.4023    0.4876   -1.5937 C.ar    1  UNL1        0.0000
     68 C          -6.8357    1.0293   -1.5319 C.ar    1  UNL1        0.0000
     69 C          -4.4333    0.7506   -1.3237 C.ar    1  UNL1        0.0000
     70 C          -6.7386    2.3549   -1.2062 C.ar    1  UNL1        0.0000
     71 H           6.6730    4.3646   -0.5805 H       1  UNL1        0.0000
     72 H           5.6344    6.3076    0.4615 H       1  UNL1        0.0000
     73 H           1.5179    6.1256    1.6923 H       1  UNL1        0.0000
     74 H           3.6685    7.3796    1.5115 H       1  UNL1        0.0000
     75 H           1.3222    3.8499    0.8265 H       1  UNL1        0.0000
     76 H          -6.2539    4.9189   -0.5642 H       1  UNL1        0.0000
     77 H          -4.9031    6.8900    0.0116 H       1  UNL1        0.0000
     78 H          -2.7080    7.8928    0.5405 H       1  UNL1        0.0000
     79 H          -0.6528    6.4749    0.5417 H       1  UNL1        0.0000
     80 H          -0.7934    4.0780    0.0683 H       1  UNL1        0.0000
     81 H          -6.6715   -4.3671    0.5820 H       1  UNL1        0.0000
     82 H          -5.6323   -6.3093   -0.4605 H       1  UNL1        0.0000
     83 H          -1.5165   -6.1248   -1.6933 H       1  UNL1        0.0000
     84 H          -3.6662   -7.3801   -1.5115 H       1  UNL1        0.0000
     85 H          -1.3218   -3.8491   -0.8276 H       1  UNL1        0.0000
     86 H           6.2539   -4.9177    0.5629 H       1  UNL1        0.0000
     87 H           4.9035   -6.8889   -0.0132 H       1  UNL1        0.0000
     88 H           2.7085   -7.8921   -0.5420 H       1  UNL1        0.0000
     89 H           0.6530   -6.4746   -0.5424 H       1  UNL1        0.0000
     90 H           0.7932   -4.0778   -0.0684 H       1  UNL1        0.0000
     91 H          -5.7522   -0.8261   -1.8623 H       1  UNL1        0.0000
     92 H           7.6729    0.1361   -2.4666 H       1  UNL1        0.0000
     93 H           5.5076   -1.1037   -2.4627 H       1  UNL1        0.0000
     94 H           3.4788   -0.0735   -1.6012 H       1  UNL1        0.0000
     95 H           7.7712    2.4451   -1.5845 H       1  UNL1        0.0000
     96 H           7.6235   -2.9819    1.1614 H       1  UNL1        0.0000
     97 H           3.5537   -0.1228    1.3909 H       1  UNL1        0.0000
     98 H          -7.8041    0.5874   -1.7441 H       1  UNL1        0.0000
     99 H          -3.5545    0.1231   -1.3900 H       1  UNL1        0.0000
    100 H          -7.6238    2.9831   -1.1621 H       1  UNL1        0.0000
    101 H          -7.7704   -2.4485    1.5868 H       1  UNL1        0.0000
    102 H          -7.6731   -0.1394    2.4691 H       1  UNL1        0.0000
    103 H           7.8034   -0.5865    1.7444 H       1  UNL1        0.0000
    104 H           5.7512    0.8266    1.8635 H       1  UNL1        0.0000
    105 H          -5.5086    1.1018    2.4640 H       1  UNL1        0.0000
    106 H          -3.4797    0.0729    1.6013 H       1  UNL1        0.0000
@<TRIPOS>BOND
     1     1    11    1
     2     1    13    1
     3     1     2    1
     4     2    12    1
     5     2    14    1
     6     3     9    1
     7     4    35    1
     8     4    12    1
     9     5    45    1
    10     5    14    1
    11     6     7    1
    12     7     2    1
    13     8     1    1
    14     8     6    1
    15     9     2    1
    16    10     1    1
    17    10     3    1
    18    11     4    1
    19    13     5    1
    20    15     6    1
    21    15    24   ar
    22    16    15   ar
    23    17    16   ar
    24    17    18   ar
    25    18    19   ar
    26    19    24   ar
    27    19    20   ar
    28    20    22   ar
    29    21    73    1
    30    22    21   ar
    31    22    74    1
    32    23    75    1
    33    23    21   ar
    34    24    23   ar
    35    25     3    1
    36    25    34   ar
    37    26    27   ar
    38    26    25   ar
    39    27    28   ar
    40    28    76    1
    41    28    29   ar
    42    29    34   ar
    43    29    30   ar
    44    30    31   ar
    45    31    32   ar
    46    31    78    1
    47    32    79    1
    48    33    80    1
    49    33    32   ar
    50    34    33   ar
    51    35    36   ar
    52    36    37   ar
    53    36    60   ar
    54    37    61   ar
    55    38    81    1
    56    38    37   ar
    57    39    38   ar
    58    40    82    1
    59    40    39   ar
    60    41    42   ar
    61    41    43   ar
    62    42    40   ar
    63    43    44   ar
    64    44    39   ar
    65    44    35   ar
    66    45    46   ar
    67    46    56   ar
    68    47    46   ar
    69    47    57   ar
    70    48    47   ar
    71    49    48   ar
    72    50    87    1
    73    50    49   ar
    74    51    50   ar
    75    52    51   ar
    76    52    53   ar
    77    53    54   ar
    78    54    49   ar
    79    54    45   ar
    80    55    68   ar
    81    55    69   ar
    82    56    97    1
    83    56    59   ar
    84    57    58   ar
    85    58    59   ar
    86    58   103    1
    87    59   104    1
    88    60   106    1
    89    60    62   ar
    90    61    63   ar
    91    62   105    1
    92    63    62   ar
    93    63   102    1
    94    64    95    1
    95    64    17   ar
    96    65    64   ar
    97    66    65   ar
    98    66    67   ar
    99    67    16   ar
   100    68    70   ar
   101    69    26   ar
   102    70   100    1
   103    70    27   ar
   104    71    18    1
   105    72    20    1
   106    77    30    1
   107    83    41    1
   108    84    42    1
   109    85    43    1
   110    86    48    1
   111    88    51    1
   112    89    52    1
   113    90    53    1
   114    91    55    1
   115    92    65    1
   116    93    66    1
   117    94    67    1
   118    96    57    1
   119    98    68    1
   120    99    69    1
   121   101    61    1
