@<TRIPOS>MOLECULE
RhRh_tri-pFPh-O2C4_4_sp
 150 165 0 0 0
SMALL
GASTEIGER

@<TRIPOS>ATOM
      1 Rh          0.0034    0.0005    1.1924 Rh      1  UNL1        0.0000
      2 Rh          0.0040    0.0004   -1.1942 Rh      1  UNL1        0.0000
      3 C          -1.9120   -1.8049   -0.0150 C.3     1  UNL1        0.0000
      4 C          -1.8070    1.9118    0.0121 C.3     1  UNL1        0.0000
      5 C           1.9179    1.8073   -0.0147 C.3     1  UNL1        0.0000
      6 C           1.8105   -1.9138    0.0133 C.3     1  UNL1        0.0000
      7 O           1.4649   -1.4240    1.1349 O.3     1  UNL1        0.0000
      8 O           1.4474   -1.4688   -1.1177 O.3     1  UNL1        0.0000
      9 O           1.4768    1.4396    1.1162 O.3     1  UNL1        0.0000
     10 O           1.4250    1.4656   -1.1363 O.3     1  UNL1        0.0000
     11 O          -1.4584    1.4237    1.1337 O.3     1  UNL1        0.0000
     12 O          -1.4415    1.4688   -1.1186 O.3     1  UNL1        0.0000
     13 O          -1.4714   -1.4378    1.1163 O.3     1  UNL1        0.0000
     14 O          -1.4172   -1.4645   -1.1361 O.3     1  UNL1        0.0000
     15 F           7.2409   -1.2603   -1.0036 F       1  UNL1        0.0000
     16 F           2.8592    6.3516   -4.3704 F       1  UNL1        0.0000
     17 F           3.9342    5.6053    4.7202 F       1  UNL1        0.0000
     18 F           6.3530   -2.8371    4.3693 F       1  UNL1        0.0000
     19 F           5.6048   -3.9446   -4.7206 F       1  UNL1        0.0000
     20 F          -1.2655   -7.2295    1.0061 F       1  UNL1        0.0000
     21 F          -2.8428   -6.3602   -4.3590 F       1  UNL1        0.0000
     22 F          -7.2374    1.2596   -1.0378 F       1  UNL1        0.0000
     23 F          -3.9508   -5.5763    4.7283 F       1  UNL1        0.0000
     24 F          -5.6466    3.9434   -4.6936 F       1  UNL1        0.0000
     25 F          -6.3372    2.8126    4.3854 F       1  UNL1        0.0000
     26 F           1.2632    7.2300    0.9797 F       1  UNL1        0.0000
     27 C           2.6635   -3.2083    0.0845 C.3     1  UNL1        0.0000
     28 C           3.6083   -3.1014    1.2916 C.ar    1  UNL1        0.0000
     29 C           4.2706   -1.8950    1.5597 C.ar    1  UNL1        0.0000
     30 C           5.1947   -1.7969    2.5942 C.ar    1  UNL1        0.0000
     31 C           5.4592   -2.9253    3.3625 C.ar    1  UNL1        0.0000
     32 C           4.8312   -4.1383    3.1187 C.ar    1  UNL1        0.0000
     33 C           3.9055   -4.2170    2.0771 C.ar    1  UNL1        0.0000
     34 C           1.6078   -4.3289    0.3156 C.ar    1  UNL1        0.0000
     35 C           1.5516   -5.4828   -0.4737 C.ar    1  UNL1        0.0000
     36 C           0.5925   -6.4712   -0.2377 C.ar    1  UNL1        0.0000
     37 C          -0.3122   -6.2965    0.7993 C.ar    1  UNL1        0.0000
     38 C          -0.2645   -5.1820    1.6275 C.ar    1  UNL1        0.0000
     39 C           0.6975   -4.2094    1.3802 C.ar    1  UNL1        0.0000
     40 C           3.4638   -3.4153   -1.2140 C.ar    1  UNL1        0.0000
     41 C           2.8143   -3.4588   -2.4604 C.ar    1  UNL1        0.0000
     42 C           3.5277   -3.6335   -3.6418 C.ar    1  UNL1        0.0000
     43 C           4.9104   -3.7754   -3.5771 C.ar    1  UNL1        0.0000
     44 C           5.5859   -3.7543   -2.3674 C.ar    1  UNL1        0.0000
     45 C           4.8534   -3.5762   -1.1925 C.ar    1  UNL1        0.0000
     46 C           3.2119    2.6610   -0.0852 C.3     1  UNL1        0.0000
     47 C           3.1086    3.6051   -1.2929 C.ar    1  UNL1        0.0000
     48 C           1.9042    4.2693   -1.5650 C.ar    1  UNL1        0.0000
     49 C           1.8112    5.1940   -2.5995 C.ar    1  UNL1        0.0000
     50 C           2.9426    5.4573   -3.3636 C.ar    1  UNL1        0.0000
     51 C           4.1539    4.8276   -3.1157 C.ar    1  UNL1        0.0000
     52 C           4.2275    3.9013   -2.0743 C.ar    1  UNL1        0.0000
     53 C           4.3331    1.6058   -0.3140 C.ar    1  UNL1        0.0000
     54 C           5.4878    1.5535    0.4744 C.ar    1  UNL1        0.0000
     55 C           6.4782    0.5964    0.2390 C.ar    1  UNL1        0.0000
     56 C           6.3049   -0.3101   -0.7967 C.ar    1  UNL1        0.0000
     57 C           5.1890   -0.2670   -1.6234 C.ar    1  UNL1        0.0000
     58 C           4.2143    0.6931   -1.3766 C.ar    1  UNL1        0.0000
     59 C           3.4161    3.4621    1.2133 C.ar    1  UNL1        0.0000
     60 C           3.4636    2.8126    2.4597 C.ar    1  UNL1        0.0000
     61 C           3.6349    3.5267    3.6411 C.ar    1  UNL1        0.0000
     62 C           3.7685    4.9103    3.5766 C.ar    1  UNL1        0.0000
     63 C           3.7422    5.5860    2.3670 C.ar    1  UNL1        0.0000
     64 C           3.5683    4.8526    1.1921 C.ar    1  UNL1        0.0000
     65 C          -2.6658    3.2026    0.0867 C.3     1  UNL1        0.0000
     66 C          -3.4768    3.4082   -1.2054 C.ar    1  UNL1        0.0000
     67 C          -2.8389    3.4404   -2.4583 C.ar    1  UNL1        0.0000
     68 C          -3.5621    3.6158   -3.6338 C.ar    1  UNL1        0.0000
     69 C          -4.9425    3.7724   -3.5563 C.ar    1  UNL1        0.0000
     70 C          -5.6062    3.7645   -2.3398 C.ar    1  UNL1        0.0000
     71 C          -4.8644    3.5835   -1.1714 C.ar    1  UNL1        0.0000
     72 C          -3.6038    3.0896    1.2986 C.ar    1  UNL1        0.0000
     73 C          -4.2713    1.8845    1.5590 C.ar    1  UNL1        0.0000
     74 C          -5.1917    1.7821    2.5964 C.ar    1  UNL1        0.0000
     75 C          -5.4471    2.9051    3.3757 C.ar    1  UNL1        0.0000
     76 C          -4.8138    4.1169    3.1398 C.ar    1  UNL1        0.0000
     77 C          -3.8920    4.1999    2.0948 C.ar    1  UNL1        0.0000
     78 C          -1.6122    4.3261    0.3121 C.ar    1  UNL1        0.0000
     79 C          -0.7016    4.2141    1.3772 C.ar    1  UNL1        0.0000
     80 C           0.2609    5.1881    1.6170 C.ar    1  UNL1        0.0000
     81 C           0.3092    6.2961    0.7802 C.ar    1  UNL1        0.0000
     82 C          -0.5953    6.4634   -0.2582 C.ar    1  UNL1        0.0000
     83 C          -1.5551    5.4738   -0.4863 C.ar    1  UNL1        0.0000
     84 C          -3.2082   -2.6547   -0.0877 C.3     1  UNL1        0.0000
     85 C          -3.4190   -3.4502    1.2132 C.ar    1  UNL1        0.0000
     86 C          -3.4721   -2.7945    2.4560 C.ar    1  UNL1        0.0000
     87 C          -3.6479   -3.5028    3.6403 C.ar    1  UNL1        0.0000
     88 C          -3.7807   -4.8868    3.5820 C.ar    1  UNL1        0.0000
     89 C          -3.7498   -5.5684    2.3759 C.ar    1  UNL1        0.0000
     90 C          -3.5711   -4.8407    1.1980 C.ar    1  UNL1        0.0000
     91 C          -4.3272   -1.5983   -0.3247 C.ar    1  UNL1        0.0000
     92 C          -4.2010   -0.6836   -1.3849 C.ar    1  UNL1        0.0000
     93 C          -5.1756    0.2747   -1.6390 C.ar    1  UNL1        0.0000
     94 C          -6.2992    0.3135   -0.8226 C.ar    1  UNL1        0.0000
     95 C          -6.4790   -0.5940    0.2111 C.ar    1  UNL1        0.0000
     96 C          -5.4887   -1.5492    0.4538 C.ar    1  UNL1        0.0000
     97 C          -3.1015   -3.6037   -1.2913 C.ar    1  UNL1        0.0000
     98 C          -1.8965   -4.2693   -1.5571 C.ar    1  UNL1        0.0000
     99 C          -1.8004   -5.1973   -2.5884 C.ar    1  UNL1        0.0000
    100 C          -2.9293   -5.4625   -3.3556 C.ar    1  UNL1        0.0000
    101 C          -4.1410   -4.8312   -3.1141 C.ar    1  UNL1        0.0000
    102 C          -4.2178   -3.9016   -2.0758 C.ar    1  UNL1        0.0000
    103 H           4.0707   -1.0177    0.9569 H       1  UNL1        0.0000
    104 H           5.7083   -0.8658    2.8018 H       1  UNL1        0.0000
    105 H           5.0655   -4.9987    3.7349 H       1  UNL1        0.0000
    106 H           3.4129   -5.1615    1.8781 H       1  UNL1        0.0000
    107 H           2.2576   -5.6222   -1.2819 H       1  UNL1        0.0000
    108 H           0.5393   -7.3625   -0.8525 H       1  UNL1        0.0000
    109 H          -0.9766   -5.0749    2.4354 H       1  UNL1        0.0000
    110 H           0.7388   -3.3409    2.0226 H       1  UNL1        0.0000
    111 H           1.7389   -3.3550   -2.5094 H       1  UNL1        0.0000
    112 H           3.0287   -3.6653   -4.6038 H       1  UNL1        0.0000
    113 H           6.6642   -3.8559   -2.3457 H       1  UNL1        0.0000
    114 H           5.3898   -3.5441   -0.2543 H       1  UNL1        0.0000
    115 H           1.0246    4.0706   -0.9653 H       1  UNL1        0.0000
    116 H           0.8815    5.7089   -2.8103 H       1  UNL1        0.0000
    117 H           5.0169    5.0610   -3.7285 H       1  UNL1        0.0000
    118 H           5.1707    3.4076   -1.8720 H       1  UNL1        0.0000
    119 H           7.3703    0.5464    0.8528 H       1  UNL1        0.0000
    120 H           5.0824   -0.9811   -2.4297 H       1  UNL1        0.0000
    121 H           3.3449    0.7312   -2.0180 H       1  UNL1        0.0000
    122 H           3.3652    1.7366    2.5085 H       1  UNL1        0.0000
    123 H           3.6701    3.0278    4.6030 H       1  UNL1        0.0000
    124 H           3.5318    5.3893    0.2543 H       1  UNL1        0.0000
    125 H          -1.7652    3.3265   -2.5176 H       1  UNL1        0.0000
    126 H          -3.0720    3.6381   -4.6006 H       1  UNL1        0.0000
    127 H          -6.6830    3.8773   -2.3084 H       1  UNL1        0.0000
    128 H          -5.3919    3.5619   -0.2279 H       1  UNL1        0.0000
    129 H          -4.0789    1.0116    0.9475 H       1  UNL1        0.0000
    130 H          -5.7096    0.8518    2.7975 H       1  UNL1        0.0000
    131 H          -5.0413    4.9733    3.7641 H       1  UNL1        0.0000
    132 H          -3.3963    5.1438    1.9013 H       1  UNL1        0.0000
    133 H          -0.7431    3.3501    2.0257 H       1  UNL1        0.0000
    134 H           0.9733    5.0866    2.4254 H       1  UNL1        0.0000
    135 H          -0.5412    7.3496   -0.8801 H       1  UNL1        0.0000
    136 H          -2.2613    5.6073   -1.2953 H       1  UNL1        0.0000
    137 H          -3.3749   -1.7182    2.5000 H       1  UNL1        0.0000
    138 H          -3.6873   -2.9991    4.5995 H       1  UNL1        0.0000
    139 H          -3.5309   -5.3820    0.2630 H       1  UNL1        0.0000
    140 H          -3.3261   -0.7186   -2.0188 H       1  UNL1        0.0000
    141 H          -5.0635    0.9900   -2.4437 H       1  UNL1        0.0000
    142 H          -7.3765   -0.5467    0.8171 H       1  UNL1        0.0000
    143 H          -5.6324   -2.2582    1.2587 H       1  UNL1        0.0000
    144 H          -1.0187   -4.0689   -0.9554 H       1  UNL1        0.0000
    145 H          -0.8703   -5.7133   -2.7943 H       1  UNL1        0.0000
    146 H          -5.1612   -3.4063   -1.8789 H       1  UNL1        0.0000
    147 H           5.6262    2.2612    1.2813 H       1  UNL1        0.0000
    148 H          -3.8438   -6.6475    2.3592 H       1  UNL1        0.0000
    149 H          -5.0020   -5.0659   -3.7293 H       1  UNL1        0.0000
    150 H           3.8363    6.6650    2.3453 H       1  UNL1        0.0000
@<TRIPOS>BOND
     1     2    10    1
     2     2    14    1
     3     2    12    1
     4     2     8    1
     5     2     1    1
     6     3    13    1
     7     4    65    1
     8     4    11    1
     9     5     9    1
    10     6    27    1
    11     6     7    1
    12     7     1    1
    13     8     6    1
    14     9     1    1
    15    10     5    1
    16    11     1    1
    17    12     4    1
    18    13     1    1
    19    14     3    1
    20    15    56    1
    21    16    50    1
    22    19    43    1
    23    21   100    1
    24    22    94    1
    25    24    69    1
    26    27    34    1
    27    27    28    1
    28    28    29   ar
    29    28    33   ar
    30    29    30   ar
    31    30   104    1
    32    30    31   ar
    33    31    18    1
    34    32    31   ar
    35    32   105    1
    36    33    32   ar
    37    34    39   ar
    38    35    36   ar
    39    35    34   ar
    40    36    37   ar
    41    37    20    1
    42    37    38   ar
    43    38   109    1
    44    39    38   ar
    45    39   110    1
    46    40    45   ar
    47    40    27    1
    48    41    40   ar
    49    42    43   ar
    50    42    41   ar
    51    43    44   ar
    52    44   113    1
    53    44    45   ar
    54    45   114    1
    55    46     5    1
    56    46    59    1
    57    47    46    1
    58    48    47   ar
    59    48   115    1
    60    49    48   ar
    61    50    51   ar
    62    50    49   ar
    63    51    52   ar
    64    52   118    1
    65    52    47   ar
    66    53    46    1
    67    53    54   ar
    68    54   147    1
    69    55    54   ar
    70    55   119    1
    71    56    55   ar
    72    57    58   ar
    73    57    56   ar
    74    58    53   ar
    75    59    60   ar
    76    60   122    1
    77    60    61   ar
    78    61   123    1
    79    62    61   ar
    80    62    17    1
    81    63    62   ar
    82    64    59   ar
    83    64    63   ar
    84    65    78    1
    85    65    72    1
    86    66    71   ar
    87    66    65    1
    88    67    66   ar
    89    68    69   ar
    90    68    67   ar
    91    69    70   ar
    92    70   127    1
    93    70    71   ar
    94    71   128    1
    95    72    73   ar
    96    72    77   ar
    97    73    74   ar
    98    74   130    1
    99    74    75   ar
   100    75    25    1
   101    76    75   ar
   102    76   131    1
   103    77    76   ar
   104    78    79   ar
   105    79    80   ar
   106    79   133    1
   107    80   134    1
   108    81    26    1
   109    81    80   ar
   110    82    81   ar
   111    83    82   ar
   112    83    78   ar
   113    84     3    1
   114    84    85    1
   115    85    86   ar
   116    86   137    1
   117    86    87   ar
   118    87   138    1
   119    88    87   ar
   120    88    23    1
   121    89    88   ar
   122    90    85   ar
   123    90    89   ar
   124    91    84    1
   125    91    96   ar
   126    92    91   ar
   127    93    92   ar
   128    93    94   ar
   129    94    95   ar
   130    95    96   ar
   131    95   142    1
   132    96   143    1
   133    97    84    1
   134    98    97   ar
   135    98   144    1
   136    99    98   ar
   137   100   101   ar
   138   100    99   ar
   139   101   102   ar
   140   102   146    1
   141   102    97   ar
   142   103    29    1
   143   106    33    1
   144   107    35    1
   145   108    36    1
   146   111    41    1
   147   112    42    1
   148   116    49    1
   149   117    51    1
   150   120    57    1
   151   121    58    1
   152   124    64    1
   153   125    67    1
   154   126    68    1
   155   129    73    1
   156   132    77    1
   157   135    82    1
   158   136    83    1
   159   139    90    1
   160   140    92    1
   161   141    93    1
   162   145    99    1
   163   148    89    1
   164   149   101    1
   165   150    63    1
