@<TRIPOS>MOLECULE
RhRh_EtEtiPr-O2C4_1_sp
 114 117 0 0 0
SMALL
GASTEIGER

@<TRIPOS>ATOM
      1 Rh          0.1318   -0.0240    1.1994 Rh      1  UNL1        0.0000
      2 Rh          0.1308   -0.0349   -1.1803 Rh      1  UNL1        0.0000
      3 C           0.6218   -2.6280    0.0279 C.3     1  UNL1        0.0000
      4 C           2.7373    0.4348   -0.0076 C.3     1  UNL1        0.0000
      5 C          -0.5666    2.5242    0.0218 C.3     1  UNL1        0.0000
      6 C          -2.4720   -0.5410   -0.0008 C.3     1  UNL1        0.0000
      7 O           2.1763    0.2461    1.1224 O.3     1  UNL1        0.0000
      8 O           2.1200    0.4675   -1.1226 O.3     1  UNL1        0.0000
      9 O           0.4050   -2.0618    1.1476 O.3     1  UNL1        0.0000
     10 O           0.6722   -2.0208   -1.0942 O.3     1  UNL1        0.0000
     11 O          -0.2190    2.0024    1.1321 O.3     1  UNL1        0.0000
     12 O          -0.4691    1.9405   -1.1083 O.3     1  UNL1        0.0000
     13 O          -1.9104   -0.3031    1.1189 O.3     1  UNL1        0.0000
     14 O          -1.8561   -0.5714   -1.1174 O.3     1  UNL1        0.0000
     15 C           4.2553    0.6679   -0.0305 C.3     1  UNL1        0.0000
     16 C           4.8927   -0.1400    1.1311 C.3     1  UNL1        0.0000
     17 C           6.4101    0.0031    1.2670 C.3     1  UNL1        0.0000
     18 C           4.5171    2.2109    0.1520 C.3     1  UNL1        0.0000
     19 C           3.8781    3.0711   -0.9482 C.3     1  UNL1        0.0000
     20 C           4.1170    2.7340    1.5394 C.3     1  UNL1        0.0000
     21 C           4.8174    0.2128   -1.4014 C.3     1  UNL1        0.0000
     22 C           4.7256   -1.2890   -1.6830 C.3     1  UNL1        0.0000
     23 C           0.8755   -4.1369    0.0069 C.3     1  UNL1        0.0000
     24 C           0.6749   -4.7654    1.4108 C.3     1  UNL1        0.0000
     25 C          -0.7415   -4.8827    1.9774 C.3     1  UNL1        0.0000
     26 C          -0.0609   -4.8219   -1.0605 C.3     1  UNL1        0.0000
     27 C          -1.4766   -4.2189   -1.1047 C.3     1  UNL1        0.0000
     28 C           0.4885   -4.8500   -2.4952 C.3     1  UNL1        0.0000
     29 C           2.3756   -4.3149   -0.3792 C.3     1  UNL1        0.0000
     30 C           3.3777   -3.7776    0.6465 C.3     1  UNL1        0.0000
     31 C          -1.1462    3.9480    0.0446 C.3     1  UNL1        0.0000
     32 C          -2.2755    4.0080   -1.0191 C.3     1  UNL1        0.0000
     33 C          -2.9769    5.3610   -1.1500 C.3     1  UNL1        0.0000
     34 C          -0.0015    4.9740   -0.2892 C.3     1  UNL1        0.0000
     35 C           1.1548    4.9275    0.7198 C.3     1  UNL1        0.0000
     36 C           0.5358    4.8538   -1.7225 C.3     1  UNL1        0.0000
     37 C          -1.7036    4.2500    1.4597 C.3     1  UNL1        0.0000
     38 C          -2.9234    3.4261    1.8804 C.3     1  UNL1        0.0000
     39 C          -3.9930   -0.7482   -0.0364 C.3     1  UNL1        0.0000
     40 C          -4.3005   -1.8139   -1.1274 C.3     1  UNL1        0.0000
     41 C          -5.7831   -2.1136   -1.3604 C.3     1  UNL1        0.0000
     42 C          -4.6147    0.6310   -0.4313 C.3     1  UNL1        0.0000
     43 C          -4.3928    1.1002   -1.8712 C.3     1  UNL1        0.0000
     44 C          -4.5695   -1.1987    1.3476 C.3     1  UNL1        0.0000
     45 C          -3.9442   -2.5029    1.8644 C.3     1  UNL1        0.0000
     46 C          -4.5523   -0.1379    2.4615 C.3     1  UNL1        0.0000
     47 H           4.4089    0.1427    2.0668 H       1  UNL1        0.0000
     48 H           4.6500   -1.1956    0.9882 H       1  UNL1        0.0000
     49 H           6.7108    1.0315    1.4879 H       1  UNL1        0.0000
     50 H           6.9365   -0.3094    0.3601 H       1  UNL1        0.0000
     51 H           6.7709   -0.6248    2.0875 H       1  UNL1        0.0000
     52 H           5.6043    2.3237    0.0564 H       1  UNL1        0.0000
     53 H           4.2681    2.8323   -1.9398 H       1  UNL1        0.0000
     54 H           4.0832    4.1289   -0.7586 H       1  UNL1        0.0000
     55 H           2.7947    2.9431   -0.9823 H       1  UNL1        0.0000
     56 H           4.2770    3.8152    1.5903 H       1  UNL1        0.0000
     57 H           4.7072    2.2763    2.3369 H       1  UNL1        0.0000
     58 H           3.0636    2.5379    1.7555 H       1  UNL1        0.0000
     59 H           4.2813    0.7406   -2.1902 H       1  UNL1        0.0000
     60 H           5.0548   -1.5013   -2.7049 H       1  UNL1        0.0000
     61 H           3.6953   -1.6440   -1.5889 H       1  UNL1        0.0000
     62 H           5.3529   -1.8778   -1.0081 H       1  UNL1        0.0000
     63 H           1.1187   -5.7685    1.3639 H       1  UNL1        0.0000
     64 H           1.2712   -4.1949    2.1251 H       1  UNL1        0.0000
     65 H          -0.6929   -5.2923    2.9916 H       1  UNL1        0.0000
     66 H          -1.3758   -5.5511    1.3892 H       1  UNL1        0.0000
     67 H          -1.2270   -3.9069    2.0397 H       1  UNL1        0.0000
     68 H          -0.1456   -5.8642   -0.7233 H       1  UNL1        0.0000
     69 H          -2.1430   -4.8727   -1.6766 H       1  UNL1        0.0000
     70 H          -1.4626   -3.2441   -1.5973 H       1  UNL1        0.0000
     71 H          -1.9135   -4.0841   -0.1153 H       1  UNL1        0.0000
     72 H          -0.2410   -5.3366   -3.1510 H       1  UNL1        0.0000
     73 H           1.4249   -5.4055   -2.5809 H       1  UNL1        0.0000
     74 H           0.6509   -3.8349   -2.8666 H       1  UNL1        0.0000
     75 H           2.5484   -3.8187   -1.3363 H       1  UNL1        0.0000
     76 H           4.3887   -3.7993    0.2301 H       1  UNL1        0.0000
     77 H           3.3874   -4.3681    1.5657 H       1  UNL1        0.0000
     78 H           3.1533   -2.7428    0.9220 H       1  UNL1        0.0000
     79 H          -1.8694    3.7062   -1.9851 H       1  UNL1        0.0000
     80 H          -3.0182    3.2467   -0.7691 H       1  UNL1        0.0000
     81 H          -3.7768    5.2948   -1.8941 H       1  UNL1        0.0000
     82 H          -2.2932    6.1502   -1.4764 H       1  UNL1        0.0000
     83 H          -3.4312    5.6835   -0.2083 H       1  UNL1        0.0000
     84 H          -0.4723    5.9607   -0.1960 H       1  UNL1        0.0000
     85 H           1.9373    5.6331    0.4248 H       1  UNL1        0.0000
     86 H           1.6057    3.9350    0.7674 H       1  UNL1        0.0000
     87 H           0.8353    5.1931    1.7297 H       1  UNL1        0.0000
     88 H           1.3410    5.5784   -1.8778 H       1  UNL1        0.0000
     89 H          -0.2363    5.0546   -2.4691 H       1  UNL1        0.0000
     90 H           0.9354    3.8567   -1.9214 H       1  UNL1        0.0000
     91 H          -1.9479    5.3176    1.5023 H       1  UNL1        0.0000
     92 H          -3.8059    3.6470    1.2724 H       1  UNL1        0.0000
     93 H          -3.1837    3.6428    2.9211 H       1  UNL1        0.0000
     94 H          -2.7173    2.3551    1.8114 H       1  UNL1        0.0000
     95 H          -3.8461   -1.4816   -2.0615 H       1  UNL1        0.0000
     96 H          -3.7858   -2.7427   -0.8709 H       1  UNL1        0.0000
     97 H          -6.3548   -1.2114   -1.5981 H       1  UNL1        0.0000
     98 H          -6.2544   -2.5868   -0.4943 H       1  UNL1        0.0000
     99 H          -5.8921   -2.8014   -2.2047 H       1  UNL1        0.0000
    100 H          -5.6907    0.5693   -0.2306 H       1  UNL1        0.0000
    101 H          -4.8726    0.4385   -2.5971 H       1  UNL1        0.0000
    102 H          -3.3302    1.1553   -2.1167 H       1  UNL1        0.0000
    103 H          -4.8229    2.0980   -2.0041 H       1  UNL1        0.0000
    104 H          -5.6276   -1.4033    1.1437 H       1  UNL1        0.0000
    105 H          -4.4418   -2.8174    2.7871 H       1  UNL1        0.0000
    106 H          -2.8845   -2.3612    2.0894 H       1  UNL1        0.0000
    107 H          -4.0367   -3.3242    1.1488 H       1  UNL1        0.0000
    108 H          -5.0703    0.7795    2.1722 H       1  UNL1        0.0000
    109 H          -3.5331    0.1202    2.7506 H       1  UNL1        0.0000
    110 H          -5.0678   -0.5352    3.3422 H       1  UNL1        0.0000
    111 H           5.8628    0.5363   -1.4607 H       1  UNL1        0.0000
    112 H          -0.9116    4.0816    2.1898 H       1  UNL1        0.0000
    113 H          -4.2271    1.3910    0.2521 H       1  UNL1        0.0000
    114 H           2.5541   -5.3850   -0.5378 H       1  UNL1        0.0000
@<TRIPOS>BOND
     1     2     8    1
     2     2    14    1
     3     2    12    1
     4     2    10    1
     5     2     1    1
     6     3     9    1
     7     4     7    1
     8     5    31    1
     9     5    11    1
    10     6    13    1
    11     7     1    1
    12     8     4    1
    13     9     1    1
    14    10     3    1
    15    11     1    1
    16    12     5    1
    17    13     1    1
    18    14     6    1
    19    15     4    1
    20    15    18    1
    21    15    16    1
    22    16    17    1
    23    16    47    1
    24    17    49    1
    25    17    51    1
    26    18    20    1
    27    19    54    1
    28    19    18    1
    29    20    56    1
    30    20    58    1
    31    20    57    1
    32    21    15    1
    33    22    61    1
    34    22    21    1
    35    22    62    1
    36    23     3    1
    37    23    24    1
    38    24    25    1
    39    24    64    1
    40    25    67    1
    41    25    65    1
    42    26    68    1
    43    26    23    1
    44    27    26    1
    45    27    71    1
    46    28    26    1
    47    29    23    1
    48    29    30    1
    49    30    78    1
    50    30    77    1
    51    31    37    1
    52    32    80    1
    53    32    31    1
    54    33    32    1
    55    33    83    1
    56    34    84    1
    57    34    31    1
    58    34    35    1
    59    35    86    1
    60    35    87    1
    61    36    34    1
    62    37    91    1
    63    37    38    1
    64    37   112    1
    65    38    93    1
    66    39     6    1
    67    39    44    1
    68    40    96    1
    69    40    39    1
    70    41    40    1
    71    41    98    1
    72    42   100    1
    73    42    39    1
    74    42   113    1
    75    43    42    1
    76    44    45    1
    77    44    46    1
    78    45   106    1
    79    45   105    1
    80    46   109    1
    81    46   110    1
    82    48    16    1
    83    50    17    1
    84    52    18    1
    85    53    19    1
    86    55    19    1
    87    59    21    1
    88    60    22    1
    89    63    24    1
    90    66    25    1
    91    69    27    1
    92    70    27    1
    93    72    28    1
    94    73    28    1
    95    74    28    1
    96    75    29    1
    97    76    30    1
    98    79    32    1
    99    81    33    1
   100    82    33    1
   101    85    35    1
   102    88    36    1
   103    89    36    1
   104    90    36    1
   105    92    38    1
   106    94    38    1
   107    95    40    1
   108    97    41    1
   109    99    41    1
   110   101    43    1
   111   102    43    1
   112   103    43    1
   113   104    44    1
   114   107    45    1
   115   108    46    1
   116   111    21    1
   117   114    29    1
