@<TRIPOS>MOLECULE
RhRh_ACH4_13_sp
 138 153 0 0 0
SMALL
GASTEIGER

@<TRIPOS>ATOM
      1 Rh          0.4067   -0.4808    0.7215 Rh      1  UNL1        0.0000
      2 Rh          0.4304   -0.3064   -1.6590 Rh      1  UNL1        0.0000
      3 C           2.2928   -2.2283   -0.5747 C.3     1  UNL1        0.0000
      4 C          -1.4024   -2.2871   -0.6353 C.3     1  UNL1        0.0000
      5 C          -1.4950    1.3951   -0.3632 C.3     1  UNL1        0.0000
      6 C           2.2630    1.4624   -0.2913 C.3     1  UNL1        0.0000
      7 O           1.9502    0.8573    0.7761 O.3     1  UNL1        0.0000
      8 O           1.7508    1.2688   -1.4403 O.3     1  UNL1        0.0000
      9 O          -0.9368    1.0764    0.7317 O.3     1  UNL1        0.0000
     10 O          -1.1490    0.9962   -1.5168 O.3     1  UNL1        0.0000
     11 O          -0.8852   -1.8829   -1.7232 O.3     1  UNL1        0.0000
     12 O          -1.1200   -1.8622    0.5262 O.3     1  UNL1        0.0000
     13 O           1.9807   -1.6659   -1.6655 O.3     1  UNL1        0.0000
     14 O           1.7721   -2.0053    0.5635 O.3     1  UNL1        0.0000
     15 N           2.6571    3.8495   -0.4110 N.am    1  UNL1        0.0000
     16 N          -3.3130    2.1702    1.0147 N.am    1  UNL1        0.0000
     17 N          -3.7913   -2.7840   -0.5394 N.am    1  UNL1        0.0000
     18 N           4.2968   -3.0947    0.4636 N.am    1  UNL1        0.0000
     19 C           3.3581    2.5469   -0.2026 C.3     1  UNL1        0.0000
     20 C           4.4200    2.2488   -1.2875 C.3     1  UNL1        0.0000
     21 C           5.6506    3.1601   -1.2055 C.3     1  UNL1        0.0000
     22 C           6.2792    3.1562    0.1912 C.3     1  UNL1        0.0000
     23 C           5.2273    3.4880    1.2540 C.3     1  UNL1        0.0000
     24 C           4.0439    2.5200    1.1802 C.3     1  UNL1        0.0000
     25 C           2.6450    4.6574   -1.5768 C.2     1  UNL1        0.0000
     26 C           1.7159    5.7872   -1.2877 C.ar    1  UNL1        0.0000
     27 C           1.3604    6.8666   -2.0818 C.ar    1  UNL1        0.0000
     28 C           0.4195    7.7623   -1.5591 C.ar    1  UNL1        0.0000
     29 C          -0.1388    7.5682   -0.2880 C.ar    1  UNL1        0.0000
     30 C           0.2265    6.4720    0.5021 C.ar    1  UNL1        0.0000
     31 C           1.1625    5.5965   -0.0276 C.ar    1  UNL1        0.0000
     32 C           1.7036    4.3289    0.5251 C.2     1  UNL1        0.0000
     33 C          -2.6422    2.4254   -0.2792 C.3     1  UNL1        0.0000
     34 C          -3.6909    2.2684   -1.4090 C.3     1  UNL1        0.0000
     35 C          -3.2081    2.6871   -2.8037 C.3     1  UNL1        0.0000
     36 C          -2.5436    4.0665   -2.7890 C.3     1  UNL1        0.0000
     37 C          -1.4387    4.1422   -1.7302 C.3     1  UNL1        0.0000
     38 C          -1.9908    3.8295   -0.3338 C.3     1  UNL1        0.0000
     39 C          -3.5948    3.0461    2.0852 C.2     1  UNL1        0.0000
     40 C          -4.1444    2.1816    3.1753 C.ar    1  UNL1        0.0000
     41 C          -4.5752    2.5246    4.4466 C.ar    1  UNL1        0.0000
     42 C          -5.0199    1.4852    5.2744 C.ar    1  UNL1        0.0000
     43 C          -5.0211    0.1557    4.8333 C.ar    1  UNL1        0.0000
     44 C          -4.5868   -0.1830    3.5451 C.ar    1  UNL1        0.0000
     45 C          -4.1598    0.8595    2.7350 C.ar    1  UNL1        0.0000
     46 C          -3.6471    0.8462    1.3472 C.2     1  UNL1        0.0000
     47 C          -2.4544   -3.4180   -0.7278 C.3     1  UNL1        0.0000
     48 C          -2.3937   -4.1217   -2.1026 C.3     1  UNL1        0.0000
     49 C          -3.3570   -5.3101   -2.1738 C.3     1  UNL1        0.0000
     50 C          -3.0398   -6.3467   -1.0910 C.3     1  UNL1        0.0000
     51 C          -3.0401   -5.7008    0.2984 C.3     1  UNL1        0.0000
     52 C          -2.1328   -4.4671    0.3625 C.3     1  UNL1        0.0000
     53 C          -4.3576   -1.9239   -1.5211 C.2     1  UNL1        0.0000
     54 C          -5.6362   -1.4211   -0.9575 C.ar    1  UNL1        0.0000
     55 C          -6.5814   -0.5745   -1.5139 C.ar    1  UNL1        0.0000
     56 C          -7.6726   -0.2188   -0.7116 C.ar    1  UNL1        0.0000
     57 C          -7.7936   -0.7022    0.5974 C.ar    1  UNL1        0.0000
     58 C          -6.8265   -1.5531    1.1469 C.ar    1  UNL1        0.0000
     59 C          -5.7514   -1.8954    0.3425 C.ar    1  UNL1        0.0000
     60 C          -4.5433   -2.7091    0.6560 C.2     1  UNL1        0.0000
     61 C           3.3173   -3.3849   -0.6084 C.3     1  UNL1        0.0000
     62 C           2.5065   -4.6727   -0.3172 C.3     1  UNL1        0.0000
     63 C           1.5598   -4.9890   -1.4815 C.3     1  UNL1        0.0000
     64 C           2.3519   -5.2087   -2.7758 C.3     1  UNL1        0.0000
     65 C           3.1880   -3.9718   -3.1257 C.3     1  UNL1        0.0000
     66 C           4.0659   -3.5084   -1.9521 C.3     1  UNL1        0.0000
     67 C           4.9348   -3.9974    1.3434 C.2     1  UNL1        0.0000
     68 C           5.8335   -3.1619    2.1952 C.ar    1  UNL1        0.0000
     69 C           6.6618   -3.5349    3.2414 C.ar    1  UNL1        0.0000
     70 C           7.4067   -2.5234    3.8615 C.ar    1  UNL1        0.0000
     71 C           7.3182   -1.1927    3.4341 C.ar    1  UNL1        0.0000
     72 C           6.4823   -0.8283    2.3712 C.ar    1  UNL1        0.0000
     73 C           5.7461   -1.8380    1.7705 C.ar    1  UNL1        0.0000
     74 C           4.7900   -1.7897    0.6371 C.2     1  UNL1        0.0000
     75 H           4.7248    1.2147   -1.1047 H       1  UNL1        0.0000
     76 H           3.9684    2.2907   -2.2754 H       1  UNL1        0.0000
     77 H           6.3786    2.8268   -1.9538 H       1  UNL1        0.0000
     78 H           5.3730    4.1814   -1.4830 H       1  UNL1        0.0000
     79 H           7.1142    3.8649    0.2368 H       1  UNL1        0.0000
     80 H           6.6972    2.1605    0.3992 H       1  UNL1        0.0000
     81 H           5.6632    3.4477    2.2589 H       1  UNL1        0.0000
     82 H           4.8735    4.5180    1.1115 H       1  UNL1        0.0000
     83 H           3.3150    2.7141    1.9637 H       1  UNL1        0.0000
     84 H           4.3960    1.4932    1.3173 H       1  UNL1        0.0000
     85 H           0.1100    8.6191   -2.1493 H       1  UNL1        0.0000
     86 H          -0.8721    8.2762    0.0845 H       1  UNL1        0.0000
     87 H          -0.2130    6.2959    1.4777 H       1  UNL1        0.0000
     88 H          -4.0472    1.2372   -1.4247 H       1  UNL1        0.0000
     89 H          -4.5340    2.9046   -1.1117 H       1  UNL1        0.0000
     90 H          -2.5031    1.9426   -3.1784 H       1  UNL1        0.0000
     91 H          -4.0692    2.6855   -3.4822 H       1  UNL1        0.0000
     92 H          -3.2969    4.8362   -2.5667 H       1  UNL1        0.0000
     93 H          -2.1366    4.3007   -3.7790 H       1  UNL1        0.0000
     94 H          -1.0091    5.1462   -1.7128 H       1  UNL1        0.0000
     95 H          -0.6270    3.4522   -1.9873 H       1  UNL1        0.0000
     96 H          -2.7515    4.5669   -0.0736 H       1  UNL1        0.0000
     97 H          -1.2135    3.8937    0.4313 H       1  UNL1        0.0000
     98 H          -4.5577    3.5562    4.7808 H       1  UNL1        0.0000
     99 H          -5.3620    1.7113    6.2795 H       1  UNL1        0.0000
    100 H          -5.3595   -0.6264    5.5056 H       1  UNL1        0.0000
    101 H          -1.3666   -4.4816   -2.2233 H       1  UNL1        0.0000
    102 H          -2.5767   -3.4064   -2.8995 H       1  UNL1        0.0000
    103 H          -3.2967   -5.7618   -3.1699 H       1  UNL1        0.0000
    104 H          -4.3891   -4.9556   -2.0549 H       1  UNL1        0.0000
    105 H          -3.7563   -7.1752   -1.1261 H       1  UNL1        0.0000
    106 H          -2.0488   -6.7780   -1.2918 H       1  UNL1        0.0000
    107 H          -2.7073   -6.4196    1.0556 H       1  UNL1        0.0000
    108 H          -4.0596   -5.4155    0.5764 H       1  UNL1        0.0000
    109 H          -2.1607   -4.0093    1.3472 H       1  UNL1        0.0000
    110 H          -1.0962   -4.7717    0.1710 H       1  UNL1        0.0000
    111 H          -8.4361    0.4440   -1.1064 H       1  UNL1        0.0000
    112 H          -8.6496   -0.4069    1.1960 H       1  UNL1        0.0000
    113 H          -6.9044   -1.9238    2.1628 H       1  UNL1        0.0000
    114 H           1.9621   -4.5437    0.6213 H       1  UNL1        0.0000
    115 H           3.2038   -5.4992   -0.1810 H       1  UNL1        0.0000
    116 H           0.8399   -4.1748   -1.6274 H       1  UNL1        0.0000
    117 H           0.9780   -5.8828   -1.2305 H       1  UNL1        0.0000
    118 H           3.0109   -6.0780   -2.6438 H       1  UNL1        0.0000
    119 H           1.6743   -5.4473   -3.6030 H       1  UNL1        0.0000
    120 H           3.8362   -4.1833   -3.9837 H       1  UNL1        0.0000
    121 H           2.5233   -3.1559   -3.4176 H       1  UNL1        0.0000
    122 H           4.8638   -4.2421   -1.7833 H       1  UNL1        0.0000
    123 H           4.5402   -2.5513   -2.1836 H       1  UNL1        0.0000
    124 H           6.7228   -4.5696    3.5606 H       1  UNL1        0.0000
    125 H           8.0650   -2.7731    4.6874 H       1  UNL1        0.0000
    126 H           7.9091   -0.4329    3.9353 H       1  UNL1        0.0000
    127 O           1.3708    3.7820    1.5569 O.2     1  UNL1        0.0000
    128 O           3.2595    4.4867   -2.6087 O.2     1  UNL1        0.0000
    129 O          -3.4431    4.2503    2.1185 O.2     1  UNL1        0.0000
    130 O          -3.5171   -0.1006    0.5949 O.2     1  UNL1        0.0000
    131 O          -3.8797   -1.6422   -2.5999 O.2     1  UNL1        0.0000
    132 O          -4.2830   -3.2083    1.7342 O.2     1  UNL1        0.0000
    133 O           4.4714   -0.8336   -0.0452 O.2     1  UNL1        0.0000
    134 O           4.8042   -5.2033    1.3864 O.2     1  UNL1        0.0000
    135 H           1.7916    6.9968   -3.0683 H       1  UNL1        0.0000
    136 H          -4.5643   -1.2106    3.1965 H       1  UNL1        0.0000
    137 H          -6.4666   -0.2019   -2.5260 H       1  UNL1        0.0000
    138 H           6.4072    0.1986    2.0302 H       1  UNL1        0.0000
@<TRIPOS>BOND
     1     1     9    1
     2     1     7    1
     3     2    10    1
     4     2     8    1
     5     2     1    1
     6     3    14    1
     7     4    12    1
     8     5    33    1
     9     5     9    1
    10     6    19    1
    11     6     7    1
    12     8     6    1
    13    10     5    1
    14    11     2    1
    15    11     4    1
    16    12     1    1
    17    13     2    1
    18    13     3    1
    19    14     1    1
    20    15    19    1
    21    15    32   am
    22    16    46   am
    23    16    39   am
    24    17    60   am
    25    18    74   am
    26    18    67   am
    27    19    24    1
    28    20    21    1
    29    20    75    1
    30    20    19    1
    31    21    22    1
    32    22    79    1
    33    22    80    1
    34    22    23    1
    35    23    81    1
    36    24    23    1
    37    24    84    1
    38    24    83    1
    39    25    26    1
    40    25    15   am
    41    26    31   ar
    42    27    28   ar
    43    27    26   ar
    44    28    29   ar
    45    29    86    1
    46    29    30   ar
    47    30    87    1
    48    31    30   ar
    49    31    32    1
    50    32   127    2
    51    33    16    1
    52    34    89    1
    53    34    33    1
    54    35    36    1
    55    35    34    1
    56    36    92    1
    57    36    37    1
    58    37    94    1
    59    37    38    1
    60    38    33    1
    61    38    96    1
    62    38    97    1
    63    39   129    2
    64    39    40    1
    65    40    41   ar
    66    41    98    1
    67    41    42   ar
    68    42    99    1
    69    43    42   ar
    70    43   100    1
    71    44    43   ar
    72    45    40   ar
    73    45    44   ar
    74    46    45    1
    75    47     4    1
    76    47    17    1
    77    47    52    1
    78    48    47    1
    79    49    48    1
    80    49   104    1
    81    49    50    1
    82    50    51    1
    83    51    52    1
    84    51   108    1
    85    51   107    1
    86    52   109    1
    87    53    54    1
    88    53    17   am
    89    54    59   ar
    90    55    54   ar
    91    55    56   ar
    92    56    57   ar
    93    57    58   ar
    94    57   112    1
    95    58   113    1
    96    59    60    1
    97    59    58   ar
    98    60   132    2
    99    61     3    1
   100    61    62    1
   101    61    18    1
   102    62   115    1
   103    62   114    1
   104    63   117    1
   105    63    62    1
   106    64   118    1
   107    64    63    1
   108    65    64    1
   109    65    66    1
   110    66   122    1
   111    66    61    1
   112    67   134    2
   113    67    68    1
   114    68    69   ar
   115    69   124    1
   116    69    70   ar
   117    70   125    1
   118    71    70   ar
   119    71   126    1
   120    72    71   ar
   121    73    68   ar
   122    73    72   ar
   123    74    73    1
   124    76    20    1
   125    77    21    1
   126    78    21    1
   127    82    23    1
   128    85    28    1
   129    88    34    1
   130    90    35    1
   131    91    35    1
   132    93    36    1
   133    95    37    1
   134   101    48    1
   135   102    48    1
   136   103    49    1
   137   105    50    1
   138   106    50    1
   139   110    52    1
   140   111    56    1
   141   116    63    1
   142   119    64    1
   143   120    65    1
   144   121    65    1
   145   123    66    1
   146   128    25    2
   147   130    46    2
   148   131    53    2
   149   133    74    2
   150   135    27    1
   151   136    44    1
   152   137    55    1
   153   138    72    1
