@<TRIPOS>MOLECULE
RhRh_S-BPTTL4_9_sp
 158 173 0 0 0
SMALL
GASTEIGER

@<TRIPOS>ATOM
      1 Rh          0.0037   -0.1339    0.2194 Rh      1  UNL1        0.0000
      2 Rh         -1.1578   -0.6488   -1.8067 Rh      1  UNL1        0.0000
      3 C           0.3337    1.8162   -1.8918 C.3     1  UNL1        0.0000
      4 C          -1.5539   -2.5440    0.3408 C.3     1  UNL1        0.0000
      5 C           1.5792   -1.5919   -1.6925 C.3     1  UNL1        0.0000
      6 C          -2.6710    0.9767    0.0217 C.3     1  UNL1        0.0000
      7 O           1.6542   -1.0809   -0.5297 O.3     1  UNL1        0.0000
      8 O           0.5536   -1.6054   -2.4347 O.3     1  UNL1        0.0000
      9 O           0.6490    1.5883   -0.6791 O.3     1  UNL1        0.0000
     10 O          -0.4208    1.1014   -2.6122 O.3     1  UNL1        0.0000
     11 O          -1.6991    0.8470    0.8320 O.3     1  UNL1        0.0000
     12 O          -2.7912    0.3893   -1.0940 O.3     1  UNL1        0.0000
     13 O          -0.7129   -1.8852    1.0283 O.3     1  UNL1        0.0000
     14 O          -1.8674   -2.3272   -0.8704 O.3     1  UNL1        0.0000
     15 N           3.5395   -2.8765   -1.1100 N.am    1  UNL1        0.0000
     16 N           2.3599    3.0918   -2.0470 N.am    1  UNL1        0.0000
     17 N          -3.0619    3.1326    0.9961 N.am    1  UNL1        0.0000
     18 N          -3.7513   -3.3319    0.9431 N.am    1  UNL1        0.0000
     19 C           4.8177   -2.5557   -0.6326 C.2     1  UNL1        0.0000
     20 C           4.9990   -3.3457    0.6124 C.ar    1  UNL1        0.0000
     21 C           6.0647   -3.4192    1.4654 C.ar    1  UNL1        0.0000
     22 C           5.9539   -4.2495    2.6187 C.ar    1  UNL1        0.0000
     23 C           4.7370   -4.9810    2.8601 C.ar    1  UNL1        0.0000
     24 C           3.6507   -4.8721    1.9437 C.ar    1  UNL1        0.0000
     25 C           3.8032   -4.0661    0.8503 C.ar    1  UNL1        0.0000
     26 C           2.8535   -3.7464   -0.2436 C.2     1  UNL1        0.0000
     27 C           2.8949    4.0487   -1.1666 C.2     1  UNL1        0.0000
     28 C           4.1880    3.4915   -0.6912 C.ar    1  UNL1        0.0000
     29 C           5.1035    3.9941    0.1921 C.ar    1  UNL1        0.0000
     30 C           6.2252    3.1834    0.5397 C.ar    1  UNL1        0.0000
     31 C           6.3640    1.8696   -0.0328 C.ar    1  UNL1        0.0000
     32 C           5.3954    1.3906   -0.9604 C.ar    1  UNL1        0.0000
     33 C           4.3417    2.2054   -1.2647 C.ar    1  UNL1        0.0000
     34 C           3.1641    1.9391   -2.1162 C.2     1  UNL1        0.0000
     35 C          -1.9821    3.7184    0.3155 C.2     1  UNL1        0.0000
     36 C          -1.2777    4.5619    1.3037 C.ar    1  UNL1        0.0000
     37 C          -0.1289    5.2896    1.1627 C.ar    1  UNL1        0.0000
     38 C           0.3929    5.9468    2.3132 C.ar    1  UNL1        0.0000
     39 C          -0.3015    5.8544    3.5711 C.ar    1  UNL1        0.0000
     40 C          -1.4938    5.0771    3.6683 C.ar    1  UNL1        0.0000
     41 C          -1.9496    4.4429    2.5452 C.ar    1  UNL1        0.0000
     42 C          -3.0793    3.4926    2.3640 C.2     1  UNL1        0.0000
     43 C          -4.3779   -2.6137    1.9917 C.2     1  UNL1        0.0000
     44 C          -5.7222   -2.2406    1.4924 C.ar    1  UNL1        0.0000
     45 C          -6.7204   -1.5281    2.0989 C.ar    1  UNL1        0.0000
     46 C          -7.9067   -1.2631    1.3562 C.ar    1  UNL1        0.0000
     47 C          -8.0298   -1.7526    0.0071 C.ar    1  UNL1        0.0000
     48 C          -6.9681   -2.5041   -0.5744 C.ar    1  UNL1        0.0000
     49 C          -5.8435   -2.7253    0.1711 C.ar    1  UNL1        0.0000
     50 C          -4.5883   -3.4423   -0.1893 C.2     1  UNL1        0.0000
     51 C           2.9010   -2.1679   -2.2179 C.3     1  UNL1        0.0000
     52 C           2.8818   -2.9538   -3.5602 C.3     1  UNL1        0.0000
     53 C           2.5074   -1.9736   -4.6899 C.3     1  UNL1        0.0000
     54 C           4.3120   -3.4655   -3.8180 C.3     1  UNL1        0.0000
     55 C           1.9128   -4.1467   -3.5489 C.3     1  UNL1        0.0000
     56 C           0.9526    3.1037   -2.4551 C.3     1  UNL1        0.0000
     57 C           0.7079    3.4621   -3.9449 C.3     1  UNL1        0.0000
     58 C           1.4474    4.7848   -4.2213 C.3     1  UNL1        0.0000
     59 C          -0.8031    3.6932   -4.1435 C.3     1  UNL1        0.0000
     60 C           1.2107    2.3875   -4.9217 C.3     1  UNL1        0.0000
     61 C          -3.7647    1.9435    0.5111 C.3     1  UNL1        0.0000
     62 C          -4.9729    2.2337   -0.4203 C.3     1  UNL1        0.0000
     63 C          -4.5704    2.8466   -1.7706 C.3     1  UNL1        0.0000
     64 C          -5.7375    0.9168   -0.6446 C.3     1  UNL1        0.0000
     65 C          -5.8966    3.2130    0.3285 C.3     1  UNL1        0.0000
     66 C          -2.3232   -3.6438    1.0755 C.3     1  UNL1        0.0000
     67 C          -1.8655   -5.1057    0.7636 C.3     1  UNL1        0.0000
     68 C          -1.5084   -5.3419   -0.7139 C.3     1  UNL1        0.0000
     69 C          -0.6099   -5.3493    1.6263 C.3     1  UNL1        0.0000
     70 C          -2.9772   -6.0718    1.2019 C.3     1  UNL1        0.0000
     71 C           7.2072    3.6295    1.4589 C.ar    1  UNL1        0.0000
     72 C           7.4628    1.0609    0.3512 C.ar    1  UNL1        0.0000
     73 C           8.3967    1.5280    1.2498 C.ar    1  UNL1        0.0000
     74 C           8.2697    2.8226    1.8041 C.ar    1  UNL1        0.0000
     75 C           0.2409    6.5249    4.6959 C.ar    1  UNL1        0.0000
     76 C           1.6028    6.6826    2.2432 C.ar    1  UNL1        0.0000
     77 C           1.4122    7.2432    4.5923 C.ar    1  UNL1        0.0000
     78 C           2.1007    7.3184    3.3593 C.ar    1  UNL1        0.0000
     79 C          -9.2092   -1.4554   -0.7206 C.ar    1  UNL1        0.0000
     80 C          -8.9679   -0.5012    1.9062 C.ar    1  UNL1        0.0000
     81 C         -10.2199   -0.7100   -0.1554 C.ar    1  UNL1        0.0000
     82 C         -10.0983   -0.2288    1.1685 C.ar    1  UNL1        0.0000
     83 C           4.6483   -5.7960    4.0160 C.ar    1  UNL1        0.0000
     84 C           7.0186   -4.3722    3.5458 C.ar    1  UNL1        0.0000
     85 C           6.8983   -5.1746    4.6589 C.ar    1  UNL1        0.0000
     86 C           5.7037   -5.8920    4.8960 C.ar    1  UNL1        0.0000
     87 H           6.9745   -2.8572    1.2792 H       1  UNL1        0.0000
     88 H           2.7255   -5.4124    2.1184 H       1  UNL1        0.0000
     89 H           4.9770    4.9755    0.6384 H       1  UNL1        0.0000
     90 H           5.4870    0.3952   -1.3806 H       1  UNL1        0.0000
     91 H           0.4018    5.3495    0.2192 H       1  UNL1        0.0000
     92 H          -2.0082    4.9767    4.6189 H       1  UNL1        0.0000
     93 H          -6.6087   -1.1567    3.1127 H       1  UNL1        0.0000
     94 H          -7.0482   -2.8761   -1.5909 H       1  UNL1        0.0000
     95 H           3.5205   -1.2795   -2.3769 H       1  UNL1        0.0000
     96 H           2.5911   -2.4821   -5.6558 H       1  UNL1        0.0000
     97 H           3.1785   -1.1091   -4.7001 H       1  UNL1        0.0000
     98 H           1.4872   -1.6067   -4.5792 H       1  UNL1        0.0000
     99 H           4.6090   -4.2177   -3.0811 H       1  UNL1        0.0000
    100 H           5.0426   -2.6516   -3.7839 H       1  UNL1        0.0000
    101 H           4.3622   -3.9313   -4.8067 H       1  UNL1        0.0000
    102 H           2.1814   -4.8771   -2.7825 H       1  UNL1        0.0000
    103 H           1.9480   -4.6495   -4.5213 H       1  UNL1        0.0000
    104 H           0.8873   -3.8253   -3.3630 H       1  UNL1        0.0000
    105 H           0.4945    3.8971   -1.8585 H       1  UNL1        0.0000
    106 H           1.1439    5.5682   -3.5196 H       1  UNL1        0.0000
    107 H           1.2245    5.1280   -5.2362 H       1  UNL1        0.0000
    108 H           2.5313    4.6615   -4.1400 H       1  UNL1        0.0000
    109 H          -1.1838    4.4432   -3.4434 H       1  UNL1        0.0000
    110 H          -1.3704    2.7748   -3.9913 H       1  UNL1        0.0000
    111 H          -0.9862    4.0512   -5.1617 H       1  UNL1        0.0000
    112 H           0.7278    1.4269   -4.7397 H       1  UNL1        0.0000
    113 H           2.2900    2.2422   -4.8389 H       1  UNL1        0.0000
    114 H           0.9893    2.7016   -5.9474 H       1  UNL1        0.0000
    115 H          -4.1682    1.4866    1.4229 H       1  UNL1        0.0000
    116 H          -5.4700    3.0004   -2.3763 H       1  UNL1        0.0000
    117 H          -3.8891    2.1940   -2.3173 H       1  UNL1        0.0000
    118 H          -4.0787    3.8129   -1.6428 H       1  UNL1        0.0000
    119 H          -5.1461    0.1988   -1.2134 H       1  UNL1        0.0000
    120 H          -6.6628    1.1135   -1.1948 H       1  UNL1        0.0000
    121 H          -6.0151    0.4587    0.3084 H       1  UNL1        0.0000
    122 H          -6.8060    3.3827   -0.2559 H       1  UNL1        0.0000
    123 H          -5.4102    4.1801    0.4834 H       1  UNL1        0.0000
    124 H          -6.1864    2.8215    1.3087 H       1  UNL1        0.0000
    125 H          -2.1360   -3.4690    2.1360 H       1  UNL1        0.0000
    126 H          -2.3486   -5.1061   -1.3655 H       1  UNL1        0.0000
    127 H          -1.2389   -6.3953   -0.8481 H       1  UNL1        0.0000
    128 H          -0.6476   -4.7414   -1.0144 H       1  UNL1        0.0000
    129 H          -0.8467   -5.2886    2.6946 H       1  UNL1        0.0000
    130 H           0.1734   -4.6243    1.3946 H       1  UNL1        0.0000
    131 H          -0.2087   -6.3470    1.4208 H       1  UNL1        0.0000
    132 H          -3.8464   -6.0028    0.5437 H       1  UNL1        0.0000
    133 H          -3.3007   -5.8734    2.2297 H       1  UNL1        0.0000
    134 H          -2.6045   -7.1000    1.1587 H       1  UNL1        0.0000
    135 H           9.2356    0.9021    1.5378 H       1  UNL1        0.0000
    136 H           9.0133    3.1790    2.5099 H       1  UNL1        0.0000
    137 H           1.8148    7.7508    5.4632 H       1  UNL1        0.0000
    138 H           3.0275    7.8801    3.2970 H       1  UNL1        0.0000
    139 H         -11.1153   -0.4877   -0.7271 H       1  UNL1        0.0000
    140 H         -10.9008    0.3595    1.6018 H       1  UNL1        0.0000
    141 H           7.5377    0.0646   -0.0743 H       1  UNL1        0.0000
    142 H          -0.2824    6.4584    5.6453 H       1  UNL1        0.0000
    143 H           3.7286   -6.3445    4.1960 H       1  UNL1        0.0000
    144 H          -9.2986   -1.8238   -1.7382 H       1  UNL1        0.0000
    145 O          -3.8651    3.0590    3.1813 O.2     1  UNL1        0.0000
    146 O          -1.7047    3.5153   -0.8535 O.2     1  UNL1        0.0000
    147 O          -3.8696   -2.3650    3.0665 O.2     1  UNL1        0.0000
    148 O          -4.3479   -4.0275   -1.2242 O.2     1  UNL1        0.0000
    149 O           5.5952   -1.7776   -1.1590 O.2     1  UNL1        0.0000
    150 O           1.7073   -4.1195   -0.3975 O.2     1  UNL1        0.0000
    151 O           2.3577    5.1016   -0.8678 O.2     1  UNL1        0.0000
    152 O           2.8823    0.9342   -2.7437 O.2     1  UNL1        0.0000
    153 H           7.9351   -3.8192    3.3619 H       1  UNL1        0.0000
    154 H           7.7227   -5.2582    5.3598 H       1  UNL1        0.0000
    155 H           5.6204   -6.5200    5.7772 H       1  UNL1        0.0000
    156 H          -8.8690   -0.1295    2.9217 H       1  UNL1        0.0000
    157 H           2.1281    6.7151    1.2935 H       1  UNL1        0.0000
    158 H           7.1056    4.6207    1.8912 H       1  UNL1        0.0000
@<TRIPOS>BOND
     1     1    11    1
     2     1    13    1
     3     2    12    1
     4     2    14    1
     5     2     1    1
     6     3    56    1
     7     3     9    1
     8     4    13    1
     9     4    66    1
    10     5    51    1
    11     5     7    1
    12     6    61    1
    13     6    11    1
    14     7     1    1
    15     8     2    1
    16     8     5    1
    17     9     1    1
    18    10     3    1
    19    10     2    1
    20    12     6    1
    21    14     4    1
    22    15    19   am
    23    15    26   am
    24    16    27   am
    25    17    42   am
    26    18    66    1
    27    18    43   am
    28    19    20    1
    29    20    25   ar
    30    20    21   ar
    31    21    22   ar
    32    22    23   ar
    33    22    84   ar
    34    23    83   ar
    35    24    88    1
    36    24    23   ar
    37    25    24   ar
    38    26    25    1
    39    27   151    2
    40    27    28    1
    41    28    29   ar
    42    29    30   ar
    43    29    89    1
    44    30    71   ar
    45    31    72   ar
    46    31    30   ar
    47    32    31   ar
    48    33    32   ar
    49    33    28   ar
    50    34    16   am
    51    34    33    1
    52    35    17   am
    53    35    36    1
    54    36    41   ar
    55    37    36   ar
    56    37    38   ar
    57    38    39   ar
    58    39    40   ar
    59    39    75   ar
    60    40    92    1
    61    41    40   ar
    62    42    41    1
    63    42   145    2
    64    43   147    2
    65    44    43    1
    66    44    45   ar
    67    45    93    1
    68    46    80   ar
    69    46    45   ar
    70    47    46   ar
    71    48    47   ar
    72    48    49   ar
    73    49    44   ar
    74    50    49    1
    75    50    18   am
    76    51    95    1
    77    51    15    1
    78    52    55    1
    79    52    51    1
    80    53    98    1
    81    53    52    1
    82    54   100    1
    83    54    52    1
    84    54    99    1
    85    55   104    1
    86    55   102    1
    87    56    16    1
    88    56   105    1
    89    57    56    1
    90    58   108    1
    91    58    57    1
    92    58   106    1
    93    59   110    1
    94    59    57    1
    95    59   109    1
    96    60   113    1
    97    60   112    1
    98    60    57    1
    99    61    17    1
   100    61   115    1
   101    62    65    1
   102    62    61    1
   103    63   118    1
   104    63    62    1
   105    64    62    1
   106    64   121    1
   107    65   123    1
   108    65   124    1
   109    66   125    1
   110    67    66    1
   111    67    70    1
   112    67    69    1
   113    68    67    1
   114    69   129    1
   115    70   133    1
   116    71    74   ar
   117    71   158    1
   118    72    73   ar
   119    73   135    1
   120    73    74   ar
   121    74   136    1
   122    75   142    1
   123    76    38   ar
   124    76    78   ar
   125    77    75   ar
   126    77   137    1
   127    78    77   ar
   128    79    81   ar
   129    79    47   ar
   130    80   156    1
   131    81    82   ar
   132    82   140    1
   133    82    80   ar
   134    83   143    1
   135    83    86   ar
   136    84    85   ar
   137    85    86   ar
   138    85   154    1
   139    86   155    1
   140    87    21    1
   141    90    32    1
   142    91    37    1
   143    94    48    1
   144    96    53    1
   145    97    53    1
   146   101    54    1
   147   103    55    1
   148   107    58    1
   149   111    59    1
   150   114    60    1
   151   116    63    1
   152   117    63    1
   153   119    64    1
   154   120    64    1
   155   122    65    1
   156   126    68    1
   157   127    68    1
   158   128    68    1
   159   130    69    1
   160   131    69    1
   161   132    70    1
   162   134    70    1
   163   138    78    1
   164   139    81    1
   165   141    72    1
   166   144    79    1
   167   146    35    2
   168   148    50    2
   169   149    19    2
   170   150    26    2
   171   152    34    2
   172   153    84    1
   173   157    76    1
