@<TRIPOS>MOLECULE
RhRh_TFA4_3-1_sp
 30 33 0 0 0
SMALL
GASTEIGER

@<TRIPOS>ATOM
      1 Rh         -0.0204   -0.0218    1.2030 Rh      1  UNL1        0.0000
      2 Rh         -0.0204   -0.0219   -1.2029 Rh      1  UNL1        0.0000
      3 C          -1.8655   -1.8627    0.0001 C.3     1  UNL1        0.0000
      4 C          -1.8647    1.8201    0.0000 C.3     1  UNL1        0.0000
      5 C           1.8235    1.8207    0.0000 C.3     1  UNL1        0.0000
      6 C           1.8386   -1.8489    0.0000 C.3     1  UNL1        0.0000
      7 O           1.4297    1.4368    1.1366 O.3     1  UNL1        0.0000
      8 O          -1.4712   -1.4800    1.1367 O.3     1  UNL1        0.0000
      9 O          -1.4800    1.4275    1.1367 O.3     1  UNL1        0.0000
     10 O           1.4424   -1.4678    1.1366 O.3     1  UNL1        0.0000
     11 O          -1.4711   -1.4800   -1.1366 O.3     1  UNL1        0.0000
     12 O           1.4297    1.4368   -1.1366 O.3     1  UNL1        0.0000
     13 O           1.4423   -1.4678   -1.1366 O.3     1  UNL1        0.0000
     14 O          -1.4800    1.4274   -1.1366 O.3     1  UNL1        0.0000
     15 F          -3.6683    2.9158    1.0882 F       1  UNL1        0.0000
     16 F          -3.6694    2.9145   -1.0874 F       1  UNL1        0.0000
     17 F          -2.2287    4.1385   -0.0011 F       1  UNL1        0.0000
     18 F           2.9216    3.6227    1.0878 F       1  UNL1        0.0000
     19 F           2.9215    3.6228   -1.0878 F       1  UNL1        0.0000
     20 F           4.1426    2.1808   -0.0001 F       1  UNL1        0.0000
     21 F           2.9487   -3.6437    1.0880 F       1  UNL1        0.0000
     22 F           2.9480   -3.6443   -1.0876 F       1  UNL1        0.0000
     23 F           4.1601   -2.1942   -0.0005 F       1  UNL1        0.0000
     24 F          -2.9686   -3.6623   -1.0875 F       1  UNL1        0.0000
     25 F          -2.9695   -3.6615    1.0881 F       1  UNL1        0.0000
     26 F          -4.1856   -2.2160   -0.0007 F       1  UNL1        0.0000
     27 C          -2.8951    2.9697   -0.0000 C.3     1  UNL1        0.0000
     28 C           2.9752    2.8488   -0.0000 C.3     1  UNL1        0.0000
     29 C           2.9971   -2.8695   -0.0000 C.3     1  UNL1        0.0000
     30 C          -3.0200   -2.8877    0.0000 C.3     1  UNL1        0.0000
@<TRIPOS>BOND
     1     2    11    1
     2     2    13    1
     3     2    14    1
     4     2    12    1
     5     2     1    1
     6     3     8    1
     7     4     9    1
     8     5     7    1
     9     6    10    1
    10     7     1    1
    11     8     1    1
    12     9     1    1
    13    10     1    1
    14    11     3    1
    15    12     5    1
    16    13     6    1
    17    14     4    1
    18    16    27    1
    19    17    27    1
    20    19    28    1
    21    20    28    1
    22    22    29    1
    23    23    29    1
    24    24    30    1
    25    26    30    1
    26    27     4    1
    27    27    15    1
    28    28     5    1
    29    28    18    1
    30    29     6    1
    31    29    21    1
    32    30     3    1
    33    30    25    1
