@<TRIPOS>MOLECULE
RhRh_S-PTV4_3_sp
 122 133 0 0 0
SMALL
GASTEIGER

@<TRIPOS>ATOM
      1 Rh         -0.2772   -0.5423   -2.0050 Rh      1  UNL1        0.0000
      2 Rh         -0.3540   -0.3219    0.3741 Rh      1  UNL1        0.0000
      3 C          -2.5340    0.9504   -1.0167 C.3     1  UNL1        0.0000
      4 C           1.9424   -1.7381   -0.6012 C.3     1  UNL1        0.0000
      5 C          -1.7805   -2.6100   -0.6466 C.3     1  UNL1        0.0000
      6 C           1.1159    1.7529   -1.0029 C.3     1  UNL1        0.0000
      7 O          -1.3080   -2.3271   -1.7876 O.3     1  UNL1        0.0000
      8 O          -1.5280   -2.0080    0.4435 O.3     1  UNL1        0.0000
      9 O          -2.0654    0.4748   -2.0943 O.3     1  UNL1        0.0000
     10 O          -2.0482    0.8078    0.1484 O.3     1  UNL1        0.0000
     11 O           0.7160    1.2423   -2.0943 O.3     1  UNL1        0.0000
     12 O           0.8172    1.3535    0.1635 O.3     1  UNL1        0.0000
     13 O           1.5382   -1.4810   -1.7777 O.3     1  UNL1        0.0000
     14 O           1.3116   -1.5136    0.4745 O.3     1  UNL1        0.0000
     15 N          -3.8509   -3.3995    0.3223 N.am    1  UNL1        0.0000
     16 N          -3.8785    2.7417   -0.0622 N.am    1  UNL1        0.0000
     17 N           3.4030    2.5564   -0.6851 N.am    1  UNL1        0.0000
     18 N           4.2045   -2.0220    0.4621 N.am    1  UNL1        0.0000
     19 C          -4.4968   -2.1586    0.2338 C.2     1  UNL1        0.0000
     20 C          -5.3926   -2.0762    1.4176 C.ar    1  UNL1        0.0000
     21 C          -6.2461   -1.0596    1.8183 C.ar    1  UNL1        0.0000
     22 C          -6.9621   -1.2637    3.0057 C.ar    1  UNL1        0.0000
     23 C          -6.8182   -2.4410    3.7492 C.ar    1  UNL1        0.0000
     24 C          -5.9447   -3.4563    3.3371 C.ar    1  UNL1        0.0000
     25 C          -5.2388   -3.2481    2.1633 C.ar    1  UNL1        0.0000
     26 C          -4.2171   -4.0985    1.4900 C.2     1  UNL1        0.0000
     27 C          -2.8090    3.6063    0.2405 C.2     1  UNL1        0.0000
     28 C          -3.2096    4.3228    1.4836 C.ar    1  UNL1        0.0000
     29 C          -2.5433    5.3012    2.2036 C.ar    1  UNL1        0.0000
     30 C          -3.1717    5.7906    3.3559 C.ar    1  UNL1        0.0000
     31 C          -4.4220    5.3064    3.7592 C.ar    1  UNL1        0.0000
     32 C          -5.0853    4.3150    3.0248 C.ar    1  UNL1        0.0000
     33 C          -4.4555    3.8385    1.8862 C.ar    1  UNL1        0.0000
     34 C          -4.8794    2.7888    0.9180 C.2     1  UNL1        0.0000
     35 C           4.1044    1.4387   -1.1688 C.2     1  UNL1        0.0000
     36 C           5.4421    1.4878   -0.5118 C.ar    1  UNL1        0.0000
     37 C           6.5302    0.6423   -0.6532 C.ar    1  UNL1        0.0000
     38 C           7.6669    0.9222    0.1158 C.ar    1  UNL1        0.0000
     39 C           7.6928    2.0127    0.9918 C.ar    1  UNL1        0.0000
     40 C           6.5851    2.8605    1.1271 C.ar    1  UNL1        0.0000
     41 C           5.4666    2.5750    0.3605 C.ar    1  UNL1        0.0000
     42 C           4.1484    3.2679    0.2734 C.2     1  UNL1        0.0000
     43 C           5.4589   -2.6570    0.6027 C.2     1  UNL1        0.0000
     44 C           6.1795   -1.9352    1.6855 C.ar    1  UNL1        0.0000
     45 C           7.4297   -2.1630    2.2387 C.ar    1  UNL1        0.0000
     46 C           7.8562   -1.2811    3.2401 C.ar    1  UNL1        0.0000
     47 C           7.0526   -0.2107    3.6515 C.ar    1  UNL1        0.0000
     48 C           5.7983    0.0176    3.0721 C.ar    1  UNL1        0.0000
     49 C           5.3842   -0.8686    2.0921 C.ar    1  UNL1        0.0000
     50 C           4.1511   -0.8485    1.2558 C.2     1  UNL1        0.0000
     51 C          -2.7223   -3.8139   -0.5063 C.3     1  UNL1        0.0000
     52 C          -3.1471   -4.5466   -1.7960 C.3     1  UNL1        0.0000
     53 C          -3.9255   -3.6805   -2.7921 C.3     1  UNL1        0.0000
     54 C          -1.9431   -5.2331   -2.4560 C.3     1  UNL1        0.0000
     55 C          -3.8524    1.7157   -1.0979 C.3     1  UNL1        0.0000
     56 C          -4.2434    2.2132   -2.5028 C.3     1  UNL1        0.0000
     57 C          -3.2678    3.2265   -3.1087 C.3     1  UNL1        0.0000
     58 C          -5.6734    2.7654   -2.4764 C.3     1  UNL1        0.0000
     59 C           2.0470    2.9702   -1.0519 C.3     1  UNL1        0.0000
     60 C           2.0165    3.8299   -2.3353 C.3     1  UNL1        0.0000
     61 C           2.6327    3.1698   -3.5736 C.3     1  UNL1        0.0000
     62 C           0.5930    4.3294   -2.6114 C.3     1  UNL1        0.0000
     63 C           3.2371   -2.5334   -0.5245 C.3     1  UNL1        0.0000
     64 C           2.8768   -4.0316   -0.2485 C.3     1  UNL1        0.0000
     65 C           2.3667   -4.2771    1.1746 C.3     1  UNL1        0.0000
     66 C           1.8832   -4.5490   -1.2969 C.3     1  UNL1        0.0000
     67 H          -7.3880   -2.5652    4.6647 H       1  UNL1        0.0000
     68 H          -5.8151   -4.3674    3.9109 H       1  UNL1        0.0000
     69 H          -4.8818    5.7054    4.6578 H       1  UNL1        0.0000
     70 H          -6.0517    3.9282    3.3295 H       1  UNL1        0.0000
     71 H           8.5357    0.2767    0.0427 H       1  UNL1        0.0000
     72 H           8.5850    2.1992    1.5805 H       1  UNL1        0.0000
     73 H           6.5933    3.7074    1.8048 H       1  UNL1        0.0000
     74 H           7.4136    0.4571    4.4273 H       1  UNL1        0.0000
     75 H           5.1750    0.8559    3.3617 H       1  UNL1        0.0000
     76 H          -2.1838   -4.5371    0.1179 H       1  UNL1        0.0000
     77 H          -4.2391   -4.2938   -3.6430 H       1  UNL1        0.0000
     78 H          -3.3077   -2.8611   -3.1643 H       1  UNL1        0.0000
     79 H          -4.8202   -3.2473   -2.3407 H       1  UNL1        0.0000
     80 H          -1.3929   -5.8531   -1.7393 H       1  UNL1        0.0000
     81 H          -1.2524   -4.4979   -2.8735 H       1  UNL1        0.0000
     82 H          -2.2824   -5.8844   -3.2670 H       1  UNL1        0.0000
     83 H          -4.6011    0.9795   -0.7870 H       1  UNL1        0.0000
     84 H          -3.2558    4.1605   -2.5403 H       1  UNL1        0.0000
     85 H          -3.5715    3.4625   -4.1337 H       1  UNL1        0.0000
     86 H          -2.2508    2.8339   -3.1324 H       1  UNL1        0.0000
     87 H          -5.7279    3.6791   -1.8744 H       1  UNL1        0.0000
     88 H          -6.3790    2.0450   -2.0521 H       1  UNL1        0.0000
     89 H          -6.0029    3.0170   -3.4888 H       1  UNL1        0.0000
     90 H           1.7268    3.6051   -0.2215 H       1  UNL1        0.0000
     91 H           3.6809    2.9044   -3.4162 H       1  UNL1        0.0000
     92 H           2.5915    3.8692   -4.4151 H       1  UNL1        0.0000
     93 H           2.0922    2.2622   -3.8450 H       1  UNL1        0.0000
     94 H           0.1337    4.7693   -1.7223 H       1  UNL1        0.0000
     95 H          -0.0486    3.5093   -2.9400 H       1  UNL1        0.0000
     96 H           0.6098    5.0861   -3.4017 H       1  UNL1        0.0000
     97 H           3.7021   -2.4654   -1.5101 H       1  UNL1        0.0000
     98 H           1.4050   -3.7875    1.3452 H       1  UNL1        0.0000
     99 H           3.0691   -3.9058    1.9264 H       1  UNL1        0.0000
    100 H           2.2412   -5.3519    1.3377 H       1  UNL1        0.0000
    101 H           2.2341   -4.3588   -2.3156 H       1  UNL1        0.0000
    102 H           0.8991   -4.0823   -1.1960 H       1  UNL1        0.0000
    103 H           1.7539   -5.6288   -1.1784 H       1  UNL1        0.0000
    104 H          -3.8199   -5.3365   -1.4357 H       1  UNL1        0.0000
    105 H          -4.2292    1.3122   -3.1260 H       1  UNL1        0.0000
    106 H           2.6340    4.7017   -2.0778 H       1  UNL1        0.0000
    107 H           3.8149   -4.5748   -0.3791 H       1  UNL1        0.0000
    108 O          -5.8769    2.0914    0.9429 O.2     1  UNL1        0.0000
    109 O          -1.7840    3.7139   -0.4004 O.2     1  UNL1        0.0000
    110 O           3.6908    0.6119   -1.9548 O.2     1  UNL1        0.0000
    111 O           3.7619    4.2501    0.8733 O.2     1  UNL1        0.0000
    112 O          -4.3234   -1.3437   -0.6535 O.2     1  UNL1        0.0000
    113 O          -3.7503   -5.1645    1.8343 O.2     1  UNL1        0.0000
    114 O           5.8586   -3.5897   -0.0665 O.2     1  UNL1        0.0000
    115 O           3.3240    0.0356    1.2214 O.2     1  UNL1        0.0000
    116 H          -6.3361   -0.1397    1.2510 H       1  UNL1        0.0000
    117 H          -7.6373   -0.4904    3.3577 H       1  UNL1        0.0000
    118 H          -1.5727    5.6635    1.8828 H       1  UNL1        0.0000
    119 H          -2.6818    6.5564    3.9488 H       1  UNL1        0.0000
    120 H           6.4921   -0.2042   -1.3306 H       1  UNL1        0.0000
    121 H           8.8259   -1.4273    3.7053 H       1  UNL1        0.0000
    122 H           8.0445   -2.9917    1.9047 H       1  UNL1        0.0000
@<TRIPOS>BOND
     1     1     7    1
     2     1    13    1
     3     1     2    1
     4     2     8    1
     5     2    14    1
     6     3    55    1
     7     3    10    1
     8     4    63    1
     9     4    14    1
    10     5    51    1
    11     5     8    1
    12     6    59    1
    13     6    12    1
    14     7     5    1
    15     9     1    1
    16     9     3    1
    17    10     2    1
    18    11     1    1
    19    11     6    1
    20    12     2    1
    21    13     4    1
    22    15    26   am
    23    16    27   am
    24    16    34   am
    25    17    42   am
    26    18    43   am
    27    18    50   am
    28    19    15   am
    29    19    20    1
    30    20    21   ar
    31    20    25   ar
    32    21    22   ar
    33    22   117    1
    34    22    23   ar
    35    23    67    1
    36    24    23   ar
    37    24    68    1
    38    25    24   ar
    39    26   113    2
    40    26    25    1
    41    27    28    1
    42    28    33   ar
    43    28    29   ar
    44    29    30   ar
    45    30    31   ar
    46    30   119    1
    47    31    69    1
    48    32    70    1
    49    32    31   ar
    50    33    32   ar
    51    34   108    2
    52    34    33    1
    53    35    17   am
    54    35    36    1
    55    36    41   ar
    56    37    36   ar
    57    37    38   ar
    58    38    39   ar
    59    39    40   ar
    60    39    72    1
    61    40    73    1
    62    41    40   ar
    63    42    41    1
    64    42   111    2
    65    43    44    1
    66    44    49   ar
    67    44    45   ar
    68    45    46   ar
    69    46    47   ar
    70    46   121    1
    71    47    74    1
    72    48    75    1
    73    48    47   ar
    74    49    48   ar
    75    50    49    1
    76    51    76    1
    77    51    15    1
    78    52   104    1
    79    52    51    1
    80    53    79    1
    81    53    52    1
    82    54    52    1
    83    54    80    1
    84    55    83    1
    85    55    16    1
    86    56    58    1
    87    56    55    1
    88    57    84    1
    89    57    56    1
    90    58    88    1
    91    58    87    1
    92    59    17    1
    93    59    90    1
    94    60   106    1
    95    60    59    1
    96    61    91    1
    97    61    60    1
    98    62    60    1
    99    62    94    1
   100    63    97    1
   101    63    64    1
   102    63    18    1
   103    64    65    1
   104    65   100    1
   105    65    98    1
   106    65    99    1
   107    66   102    1
   108    66   103    1
   109    66    64    1
   110    71    38    1
   111    77    53    1
   112    78    53    1
   113    81    54    1
   114    82    54    1
   115    85    57    1
   116    86    57    1
   117    89    58    1
   118    92    61    1
   119    93    61    1
   120    95    62    1
   121    96    62    1
   122   101    66    1
   123   105    56    1
   124   107    64    1
   125   109    27    2
   126   110    35    2
   127   112    19    2
   128   114    43    2
   129   115    50    2
   130   116    21    1
   131   118    29    1
   132   120    37    1
   133   122    45    1
