@<TRIPOS>MOLECULE
RhRh_4S-MEPY4_3_sp
 74 81 0 0 0
SMALL
GASTEIGER

@<TRIPOS>ATOM
      1 C          -1.3712   -2.4517    1.3400 C.3     1  UNL1        0.0000
      2 C           1.3881   -2.4295   -1.3645 C.3     1  UNL1        0.0000
      3 C           1.2789    1.3449   -1.2610 C.3     1  UNL1        0.0000
      4 C          -1.3022    1.3212    1.2623 C.3     1  UNL1        0.0000
      5 O           0.2552   -2.1802   -1.8728 O.3     1  UNL1        0.0000
      6 O           0.3651    0.8030   -1.9608 O.3     1  UNL1        0.0000
      7 O          -0.3835    0.7824    1.9580 O.3     1  UNL1        0.0000
      8 O          -0.2384   -2.1983    1.8465 O.3     1  UNL1        0.0000
      9 N           1.8508   -1.9552   -0.2205 N.3     1  UNL1        0.0000
     10 N           1.6843    0.9391   -0.0713 N.3     1  UNL1        0.0000
     11 N          -1.7011    0.9224    0.0680 N.3     1  UNL1        0.0000
     12 N          -1.8405   -1.9721    0.2009 N.3     1  UNL1        0.0000
     13 C           3.4365   -3.5737   -0.9379 C.3     1  UNL1        0.0000
     14 C           3.2268   -2.3546    0.0081 C.3     1  UNL1        0.0000
     15 C           4.1847   -1.2313   -0.3766 C.2     1  UNL1        0.0000
     16 C           6.1494   -0.0750    0.2242 C.3     1  UNL1        0.0000
     17 C           3.1639    2.6915   -0.7098 C.3     1  UNL1        0.0000
     18 C           2.6569    1.8709    0.5006 C.3     1  UNL1        0.0000
     19 C           1.9258    2.7374    1.5239 C.2     1  UNL1        0.0000
     20 C           1.3667    2.9208    3.8049 C.3     1  UNL1        0.0000
     21 C          -3.1994    2.6524    0.7168 C.3     1  UNL1        0.0000
     22 C          -2.6760    1.8534   -0.5016 C.3     1  UNL1        0.0000
     23 C          -1.9401    2.7445   -1.5000 C.2     1  UNL1        0.0000
     24 C          -1.3450    3.0002   -3.7593 C.3     1  UNL1        0.0000
     25 C          -3.4152   -3.6028    0.9141 C.3     1  UNL1        0.0000
     26 C          -3.2176   -2.3731   -0.0198 C.3     1  UNL1        0.0000
     27 C          -4.1733   -1.2548    0.3852 C.2     1  UNL1        0.0000
     28 C          -6.1217   -0.0699   -0.2164 C.3     1  UNL1        0.0000
     29 C           2.4045   -3.3299   -2.0480 C.3     1  UNL1        0.0000
     30 C          -2.3788   -3.3634    2.0210 C.3     1  UNL1        0.0000
     31 C          -2.0474    2.5553    1.7276 C.3     1  UNL1        0.0000
     32 C           2.0084    2.5925   -1.7158 C.3     1  UNL1        0.0000
     33 H           4.4640   -3.6603   -1.3004 H       1  UNL1        0.0000
     34 H           3.1949   -4.4837   -0.3819 H       1  UNL1        0.0000
     35 H           3.3898   -2.6090    1.0562 H       1  UNL1        0.0000
     36 H           6.5603   -0.2749   -0.7673 H       1  UNL1        0.0000
     37 H           5.7202    0.9303    0.2307 H       1  UNL1        0.0000
     38 H           6.9224   -0.1617    0.9877 H       1  UNL1        0.0000
     39 H           3.4192    3.7184   -0.4399 H       1  UNL1        0.0000
     40 H           4.0509    2.1953   -1.1114 H       1  UNL1        0.0000
     41 H           3.4519    1.3197    1.0069 H       1  UNL1        0.0000
     42 H           0.3933    2.4345    3.7187 H       1  UNL1        0.0000
     43 H           1.8362    2.6752    4.7581 H       1  UNL1        0.0000
     44 H           1.2620    4.0015    3.6929 H       1  UNL1        0.0000
     45 H          -3.4666    3.6793    0.4588 H       1  UNL1        0.0000
     46 H          -4.0811    2.1397    1.1091 H       1  UNL1        0.0000
     47 H          -3.4597    1.3022   -1.0261 H       1  UNL1        0.0000
     48 H          -1.2477    4.0755   -3.6007 H       1  UNL1        0.0000
     49 H          -0.3701    2.5161   -3.6768 H       1  UNL1        0.0000
     50 H          -1.7961    2.7912   -4.7287 H       1  UNL1        0.0000
     51 H          -4.4401   -3.6988    1.2812 H       1  UNL1        0.0000
     52 H          -3.1709   -4.5060    0.3480 H       1  UNL1        0.0000
     53 H          -3.3894   -2.6149   -1.0696 H       1  UNL1        0.0000
     54 H          -6.5246   -0.2545    0.7812 H       1  UNL1        0.0000
     55 H          -5.6835    0.9311   -0.2402 H       1  UNL1        0.0000
     56 H          -6.9017   -0.1572   -0.9722 H       1  UNL1        0.0000
     57 H           2.8298   -2.7842   -2.8963 H       1  UNL1        0.0000
     58 H           1.9338   -4.2387   -2.4299 H       1  UNL1        0.0000
     59 H          -2.8027   -2.8268    2.8756 H       1  UNL1        0.0000
     60 H          -1.9010   -4.2728    2.3929 H       1  UNL1        0.0000
     61 H          -1.3576    3.4015    1.6617 H       1  UNL1        0.0000
     62 H          -2.3745    2.4448    2.7646 H       1  UNL1        0.0000
     63 H           1.3093    3.4299   -1.6357 H       1  UNL1        0.0000
     64 H           2.3311    2.4989   -2.7559 H       1  UNL1        0.0000
     65 O           1.1402    3.6159    1.2421 O.2     1  UNL1        0.0000
     66 O           4.1484   -0.5995   -1.4085 O.2     1  UNL1        0.0000
     67 O          -1.1668    3.6236   -1.1853 O.2     1  UNL1        0.0000
     68 O          -4.1334   -0.6404    1.4280 O.2     1  UNL1        0.0000
     69 O          -5.1337   -1.0558   -0.5542 O.3     1  UNL1        0.0000
     70 O          -2.2230    2.4176   -2.7795 O.3     1  UNL1        0.0000
     71 O           2.2327    2.3832    2.7909 O.3     1  UNL1        0.0000
     72 O           5.1502   -1.0494    0.5644 O.3     1  UNL1        0.0000
     73 Rh         -0.8271   -0.6190   -0.9352 Rh      1  UNL1        0.0000
     74 Rh          0.8231   -0.6199    0.9221 Rh      1  UNL1        0.0000
@<TRIPOS>BOND
     1     1     8    1
     2     1    30    1
     3     2     5    1
     4     2     9    1
     5     3     6    1
     6     3    10    1
     7     4    31    1
     8     4     7    1
     9     5    73    1
    10     6    73    1
    11     9    14    1
    12     9    74    1
    13    10    18    1
    14    10    74    1
    15    11    73    1
    16    11     4    1
    17    12    73    1
    18    12     1    1
    19    13    34    1
    20    13    14    1
    21    14    35    1
    22    15    14    1
    23    15    72    1
    24    16    37    1
    25    16    72    1
    26    16    38    1
    27    17    39    1
    28    17    18    1
    29    18    41    1
    30    18    19    1
    31    19    71    1
    32    20    43    1
    33    21    46    1
    34    21    31    1
    35    22    47    1
    36    22    11    1
    37    22    21    1
    38    23    67    2
    39    23    22    1
    40    24    49    1
    41    24    48    1
    42    24    70    1
    43    25    51    1
    44    25    30    1
    45    26    53    1
    46    26    12    1
    47    26    27    1
    48    26    25    1
    49    27    68    2
    50    28    54    1
    51    29     2    1
    52    29    13    1
    53    30    60    1
    54    30    59    1
    55    31    62    1
    56    32    63    1
    57    32     3    1
    58    32    17    1
    59    33    13    1
    60    36    16    1
    61    40    17    1
    62    42    20    1
    63    44    20    1
    64    45    21    1
    65    50    24    1
    66    52    25    1
    67    55    28    1
    68    56    28    1
    69    57    29    1
    70    58    29    1
    71    61    31    1
    72    64    32    1
    73    65    19    2
    74    66    15    2
    75    69    28    1
    76    69    27    1
    77    70    23    1
    78    71    20    1
    79    73    74    1
    80    74     8    1
    81    74     7    1
