@<TRIPOS>MOLECULE
RhRh_4S-MEPY4_4_sp
 74 81 0 0 0
SMALL
GASTEIGER

@<TRIPOS>ATOM
      1 C           0.8983   -2.6330   -1.1748 C.3     1  UNL1        0.0000
      2 C          -1.4600   -2.1692    1.7035 C.3     1  UNL1        0.0000
      3 C          -1.0281    1.6019    1.3934 C.3     1  UNL1        0.0000
      4 C           1.3234    1.0512   -1.4797 C.3     1  UNL1        0.0000
      5 O          -0.3001   -1.9003    2.1451 O.3     1  UNL1        0.0000
      6 O          -0.0390    1.0660    1.9918 O.3     1  UNL1        0.0000
      7 O           0.2370    0.6388   -1.9898 O.3     1  UNL1        0.0000
      8 O          -0.2291   -2.2559   -1.6113 O.3     1  UNL1        0.0000
      9 N          -2.0202   -1.6680    0.6194 N.3     1  UNL1        0.0000
     10 N          -1.5820    1.1782    0.2767 N.3     1  UNL1        0.0000
     11 N           1.7855    0.7382   -0.2820 N.3     1  UNL1        0.0000
     12 N           1.5328   -2.1415   -0.1232 N.3     1  UNL1        0.0000
     13 C          -3.7094   -2.9616    1.6882 C.3     1  UNL1        0.0000
     14 C          -3.3094   -2.2878    0.3455 C.3     1  UNL1        0.0000
     15 C          -4.3404   -1.2519   -0.0723 C.2     1  UNL1        0.0000
     16 C          -5.9708   -0.7019   -1.6706 C.3     1  UNL1        0.0000
     17 C          -2.9754    2.9280    1.0651 C.3     1  UNL1        0.0000
     18 C          -2.6106    2.0954   -0.1953 C.3     1  UNL1        0.0000
     19 C          -2.0919    2.9927   -1.3111 C.2     1  UNL1        0.0000
     20 C          -0.3851    4.5211   -1.8895 C.3     1  UNL1        0.0000
     21 C           3.4915    2.0431   -1.3079 C.3     1  UNL1        0.0000
     22 C           2.9548    1.5476    0.0558 C.3     1  UNL1        0.0000
     23 C           2.4592    2.6916    0.9375 C.2     1  UNL1        0.0000
     24 C           2.0771    3.3469    3.1666 C.3     1  UNL1        0.0000
     25 C           2.7790   -4.0498   -0.7976 C.3     1  UNL1        0.0000
     26 C           2.8466   -2.7364    0.0356 C.3     1  UNL1        0.0000
     27 C           3.9233   -1.8173   -0.5321 C.2     1  UNL1        0.0000
     28 C           6.0781   -0.9243   -0.1865 C.3     1  UNL1        0.0000
     29 C          -2.3588   -3.1911    2.3789 C.3     1  UNL1        0.0000
     30 C           1.7015   -3.7361   -1.8452 C.3     1  UNL1        0.0000
     31 C           2.2571    1.9903   -2.2210 C.3     1  UNL1        0.0000
     32 C          -1.6946    2.8636    1.9109 C.3     1  UNL1        0.0000
     33 H          -4.3099   -2.2558    2.2686 H       1  UNL1        0.0000
     34 H          -4.2933   -3.8715    1.5339 H       1  UNL1        0.0000
     35 H          -3.2126   -3.0196   -0.4649 H       1  UNL1        0.0000
     36 H          -6.6644   -0.3934   -0.8853 H       1  UNL1        0.0000
     37 H          -5.4493    0.1779   -2.0558 H       1  UNL1        0.0000
     38 H          -6.4994   -1.2124   -2.4753 H       1  UNL1        0.0000
     39 H          -3.2980    3.9449    0.8275 H       1  UNL1        0.0000
     40 H          -3.7951    2.4123    1.5710 H       1  UNL1        0.0000
     41 H          -3.4657    1.5493   -0.5868 H       1  UNL1        0.0000
     42 H          -1.0712    5.3565   -2.0546 H       1  UNL1        0.0000
     43 H           0.5423    4.8562   -1.4290 H       1  UNL1        0.0000
     44 H          -0.1892    4.0312   -2.8459 H       1  UNL1        0.0000
     45 H           3.9408    3.0364   -1.2433 H       1  UNL1        0.0000
     46 H           4.2416    1.3315   -1.6581 H       1  UNL1        0.0000
     47 H           3.6801    0.9525    0.6142 H       1  UNL1        0.0000
     48 H           1.0428    3.0048    3.2313 H       1  UNL1        0.0000
     49 H           2.5822    3.2186    4.1234 H       1  UNL1        0.0000
     50 H           2.1146    4.3887    2.8444 H       1  UNL1        0.0000
     51 H           3.7437   -4.3334   -1.2259 H       1  UNL1        0.0000
     52 H           2.4497   -4.8575   -0.1381 H       1  UNL1        0.0000
     53 H           3.0660   -2.9205    1.0885 H       1  UNL1        0.0000
     54 H           6.9010   -1.0860    0.5089 H       1  UNL1        0.0000
     55 H           6.3534   -1.2391   -1.1947 H       1  UNL1        0.0000
     56 H           5.8061    0.1342   -0.2090 H       1  UNL1        0.0000
     57 H          -2.3777   -3.0473    3.4616 H       1  UNL1        0.0000
     58 H          -1.9530   -4.1916    2.1848 H       1  UNL1        0.0000
     59 H           2.1288   -3.3358   -2.7701 H       1  UNL1        0.0000
     60 H           1.0661   -4.5861   -2.1041 H       1  UNL1        0.0000
     61 H           1.7770    2.9640   -2.3298 H       1  UNL1        0.0000
     62 H           2.4649    1.5995   -3.2204 H       1  UNL1        0.0000
     63 H          -1.0224    3.7065    1.7211 H       1  UNL1        0.0000
     64 H          -1.8740    2.7974    2.9870 H       1  UNL1        0.0000
     65 O          -2.6604    3.2030   -2.3670 O.2     1  UNL1        0.0000
     66 O          -4.5687   -0.2173    0.5189 O.2     1  UNL1        0.0000
     67 O           1.8199    3.6409    0.5315 O.2     1  UNL1        0.0000
     68 O           3.8837   -1.2777   -1.6163 O.2     1  UNL1        0.0000
     69 O           4.9832   -1.7107    0.3088 O.3     1  UNL1        0.0000
     70 O           2.7728    2.4996    2.2346 O.3     1  UNL1        0.0000
     71 O          -0.9430    3.5897   -0.9569 O.3     1  UNL1        0.0000
     72 O          -5.0179   -1.6487   -1.1676 O.3     1  UNL1        0.0000
     73 Rh          0.8401   -0.5666    0.9700 Rh      1  UNL1        0.0000
     74 Rh         -0.9973   -0.5036   -0.6959 Rh      1  UNL1        0.0000
@<TRIPOS>BOND
     1     1     8    1
     2     1    12    1
     3     2     5    1
     4     2    29    1
     5     3    32    1
     6     3     6    1
     7     4     7    1
     8     4    11    1
     9     7    74    1
    10     8    74    1
    11     9    74    1
    12     9     2    1
    13    10    74    1
    14    10     3    1
    15    11    22    1
    16    11    73    1
    17    12    26    1
    18    12    73    1
    19    13    33    1
    20    13    29    1
    21    14    35    1
    22    14     9    1
    23    14    13    1
    24    15    14    1
    25    15    66    2
    26    16    72    1
    27    16    36    1
    28    17    40    1
    29    17    32    1
    30    18    41    1
    31    18    10    1
    32    18    17    1
    33    19    71    1
    34    19    18    1
    35    20    43    1
    36    20    71    1
    37    21    45    1
    38    21    22    1
    39    22    47    1
    40    22    23    1
    41    23    70    1
    42    24    48    1
    43    24    49    1
    44    25    52    1
    45    25    26    1
    46    26    53    1
    47    27    26    1
    48    27    69    1
    49    28    69    1
    50    28    54    1
    51    29    57    1
    52    30     1    1
    53    30    25    1
    54    31     4    1
    55    31    21    1
    56    32    64    1
    57    34    13    1
    58    37    16    1
    59    38    16    1
    60    39    17    1
    61    42    20    1
    62    44    20    1
    63    46    21    1
    64    50    24    1
    65    51    25    1
    66    55    28    1
    67    56    28    1
    68    58    29    1
    69    59    30    1
    70    60    30    1
    71    61    31    1
    72    62    31    1
    73    63    32    1
    74    65    19    2
    75    67    23    2
    76    68    27    2
    77    70    24    1
    78    72    15    1
    79    73     6    1
    80    73     5    1
    81    74    73    1
