@<TRIPOS>MOLECULE
RhRh_PhPhtol-O2C4_43_sp
 162 177 0 0 0
SMALL
GASTEIGER

@<TRIPOS>ATOM
      1 Rh         -0.0000    0.0001   -1.1809 Rh      1  UNL1        0.0000
      2 Rh          0.0000    0.0001    1.2003 Rh      1  UNL1        0.0000
      3 C           2.2109   -1.4353   -0.0148 C.3     1  UNL1        0.0000
      4 C          -1.4436   -2.2073    0.0345 C.3     1  UNL1        0.0000
      5 C          -2.2110    1.4354   -0.0147 C.3     1  UNL1        0.0000
      6 C           1.4436    2.2075    0.0344 C.3     1  UNL1        0.0000
      7 O          -1.2937   -1.6184   -1.0800 O.3     1  UNL1        0.0000
      8 O          -1.0516   -1.7470    1.1529 O.3     1  UNL1        0.0000
      9 O          -1.5929    1.3081   -1.1208 O.3     1  UNL1        0.0000
     10 O          -1.7705    1.0396    1.1069 O.3     1  UNL1        0.0000
     11 O           1.2937    1.6187   -1.0802 O.3     1  UNL1        0.0000
     12 O           1.0517    1.7471    1.1528 O.3     1  UNL1        0.0000
     13 O           1.5928   -1.3079   -1.1209 O.3     1  UNL1        0.0000
     14 O           1.7704   -1.0394    1.1068 O.3     1  UNL1        0.0000
     15 C          -2.1553   -3.5859    0.0961 C.3     1  UNL1        0.0000
     16 C          -3.2125   -3.4630    1.2200 C.ar    1  UNL1        0.0000
     17 C          -3.4464   -4.4935    2.1316 C.ar    1  UNL1        0.0000
     18 C          -4.4567   -4.3774    3.0903 C.ar    1  UNL1        0.0000
     19 C          -5.2498   -3.2337    3.1459 C.ar    1  UNL1        0.0000
     20 C          -5.0263   -2.2004    2.2329 C.ar    1  UNL1        0.0000
     21 C          -4.0151   -2.3154    1.2844 C.ar    1  UNL1        0.0000
     22 C          -2.8223   -3.9260   -1.2589 C.ar    1  UNL1        0.0000
     23 C          -4.1937   -4.2165   -1.2877 C.ar    1  UNL1        0.0000
     24 C          -4.8582   -4.5406   -2.4680 C.ar    1  UNL1        0.0000
     25 C          -4.1509   -4.5750   -3.6655 C.ar    1  UNL1        0.0000
     26 C          -2.7831   -4.3195   -3.6476 C.ar    1  UNL1        0.0000
     27 C          -2.0906   -4.0120   -2.4680 C.ar    1  UNL1        0.0000
     28 C          -1.1120   -4.6697    0.4910 C.ar    1  UNL1        0.0000
     29 C          -0.1606   -4.4467    1.4981 C.ar    1  UNL1        0.0000
     30 C           0.7217   -5.4543    1.8872 C.ar    1  UNL1        0.0000
     31 C           0.6649   -6.7125    1.2891 C.ar    1  UNL1        0.0000
     32 C          -0.2940   -6.9540    0.3062 C.ar    1  UNL1        0.0000
     33 C          -1.1732   -5.9443   -0.0871 C.ar    1  UNL1        0.0000
     34 C          -3.6282    2.0864   -0.0549 C.3     1  UNL1        0.0000
     35 C          -3.9549    2.5233    1.3904 C.ar    1  UNL1        0.0000
     36 C          -4.0623    3.8600    1.7760 C.ar    1  UNL1        0.0000
     37 C          -4.3594    4.2011    3.0987 C.ar    1  UNL1        0.0000
     38 C          -4.5504    3.2097    4.0572 C.ar    1  UNL1        0.0000
     39 C          -4.4424    1.8679    3.6814 C.ar    1  UNL1        0.0000
     40 C          -4.1474    1.5321    2.3649 C.ar    1  UNL1        0.0000
     41 C          -4.6338    1.0058   -0.5558 C.ar    1  UNL1        0.0000
     42 C          -6.0200    1.0712   -0.2635 C.ar    1  UNL1        0.0000
     43 C          -6.8506    0.0524   -0.7544 C.ar    1  UNL1        0.0000
     44 C          -6.3750   -0.9856   -1.5504 C.ar    1  UNL1        0.0000
     45 C          -5.0311   -1.0010   -1.9020 C.ar    1  UNL1        0.0000
     46 C          -4.1827   -0.0156   -1.4050 C.ar    1  UNL1        0.0000
     47 C          -3.5779    3.2682   -1.0404 C.ar    1  UNL1        0.0000
     48 C          -4.5313    3.4432   -2.0463 C.ar    1  UNL1        0.0000
     49 C          -4.4733    4.5490   -2.8976 C.ar    1  UNL1        0.0000
     50 C          -3.4602    5.4950   -2.7584 C.ar    1  UNL1        0.0000
     51 C          -2.4971    5.3247   -1.7626 C.ar    1  UNL1        0.0000
     52 C          -2.5559    4.2189   -0.9191 C.ar    1  UNL1        0.0000
     53 C           2.1554    3.5860    0.0961 C.3     1  UNL1        0.0000
     54 C           1.1123    4.6700    0.4909 C.ar    1  UNL1        0.0000
     55 C           0.1606    4.4469    1.4978 C.ar    1  UNL1        0.0000
     56 C          -0.7216    5.4546    1.8868 C.ar    1  UNL1        0.0000
     57 C          -0.6644    6.7129    1.2891 C.ar    1  UNL1        0.0000
     58 C           0.2948    6.9545    0.3065 C.ar    1  UNL1        0.0000
     59 C           1.1738    5.9446   -0.0868 C.ar    1  UNL1        0.0000
     60 C           3.2127    3.4631    1.2199 C.ar    1  UNL1        0.0000
     61 C           3.4464    4.4934    2.1318 C.ar    1  UNL1        0.0000
     62 C           4.4567    4.3771    3.0905 C.ar    1  UNL1        0.0000
     63 C           5.2498    3.2334    3.1459 C.ar    1  UNL1        0.0000
     64 C           5.0265    2.2003    2.2327 C.ar    1  UNL1        0.0000
     65 C           4.0153    2.3155    1.2842 C.ar    1  UNL1        0.0000
     66 C           2.8224    3.9261   -1.2589 C.ar    1  UNL1        0.0000
     67 C           2.0906    4.0123   -2.4680 C.ar    1  UNL1        0.0000
     68 C           2.7831    4.3197   -3.6476 C.ar    1  UNL1        0.0000
     69 C           4.1509    4.5749   -3.6656 C.ar    1  UNL1        0.0000
     70 C           4.8584    4.5403   -2.4681 C.ar    1  UNL1        0.0000
     71 C           4.1939    4.2163   -1.2878 C.ar    1  UNL1        0.0000
     72 C           3.6281   -2.0865   -0.0550 C.3     1  UNL1        0.0000
     73 C           3.9547   -2.5233    1.3904 C.ar    1  UNL1        0.0000
     74 C           4.0618   -3.8600    1.7762 C.ar    1  UNL1        0.0000
     75 C           4.3590   -4.2009    3.0989 C.ar    1  UNL1        0.0000
     76 C           4.5502   -3.2095    4.0572 C.ar    1  UNL1        0.0000
     77 C           4.4424   -1.8676    3.6814 C.ar    1  UNL1        0.0000
     78 C           4.1475   -1.5320    2.3648 C.ar    1  UNL1        0.0000
     79 C           3.5775   -3.2684   -1.0403 C.ar    1  UNL1        0.0000
     80 C           4.5308   -3.4435   -2.0464 C.ar    1  UNL1        0.0000
     81 C           4.4726   -4.5494   -2.8976 C.ar    1  UNL1        0.0000
     82 C           3.4594   -5.4953   -2.7582 C.ar    1  UNL1        0.0000
     83 C           2.4965   -5.3248   -1.7623 C.ar    1  UNL1        0.0000
     84 C           2.5555   -4.2190   -0.9189 C.ar    1  UNL1        0.0000
     85 C           4.6338   -1.0061   -0.5559 C.ar    1  UNL1        0.0000
     86 C           6.0200   -1.0718   -0.2636 C.ar    1  UNL1        0.0000
     87 C           6.8508   -0.0532   -0.7545 C.ar    1  UNL1        0.0000
     88 C           6.3754    0.9850   -1.5503 C.ar    1  UNL1        0.0000
     89 C           5.0315    1.0008   -1.9019 C.ar    1  UNL1        0.0000
     90 C           4.1829    0.0155   -1.4050 C.ar    1  UNL1        0.0000
     91 C          -0.5946   -3.8398   -2.5983 C.3     1  UNL1        0.0000
     92 C          -6.6972    2.2001    0.4844 C.3     1  UNL1        0.0000
     93 C           0.5946    3.8404   -2.5982 C.3     1  UNL1        0.0000
     94 C           6.6970   -2.2009    0.4841 C.3     1  UNL1        0.0000
     95 H          -2.8437   -5.3928    2.0980 H       1  UNL1        0.0000
     96 H          -4.6205   -5.1893    3.7926 H       1  UNL1        0.0000
     97 H          -6.0363   -3.1476    3.8893 H       1  UNL1        0.0000
     98 H          -5.6425   -1.3068    2.2471 H       1  UNL1        0.0000
     99 H          -3.8688   -1.5134    0.5722 H       1  UNL1        0.0000
    100 H          -4.7627   -4.1805   -0.3696 H       1  UNL1        0.0000
    101 H          -5.9220   -4.7557   -2.4440 H       1  UNL1        0.0000
    102 H          -4.6499   -4.8136   -4.5999 H       1  UNL1        0.0000
    103 H          -2.2167   -4.3734   -4.5740 H       1  UNL1        0.0000
    104 H          -0.1052   -3.4814    1.9804 H       1  UNL1        0.0000
    105 H           1.4642   -5.2403    2.6492 H       1  UNL1        0.0000
    106 H           1.3556   -7.4951    1.5870 H       1  UNL1        0.0000
    107 H          -0.3630   -7.9316   -0.1617 H       1  UNL1        0.0000
    108 H          -1.9119   -6.1509   -0.8511 H       1  UNL1        0.0000
    109 H          -3.9324    4.6479    1.0458 H       1  UNL1        0.0000
    110 H          -4.4487    5.2487    3.3710 H       1  UNL1        0.0000
    111 H          -4.7839    3.4751    5.0837 H       1  UNL1        0.0000
    112 H          -4.5883    1.0796    4.4139 H       1  UNL1        0.0000
    113 H          -4.0636    0.4889    2.0898 H       1  UNL1        0.0000
    114 H          -7.9096    0.0987   -0.5155 H       1  UNL1        0.0000
    115 H          -7.0508   -1.7564   -1.9080 H       1  UNL1        0.0000
    116 H          -4.6301   -1.7774   -2.5419 H       1  UNL1        0.0000
    117 H          -3.1450   -0.0556   -1.6938 H       1  UNL1        0.0000
    118 H          -5.3182    2.7112   -2.1786 H       1  UNL1        0.0000
    119 H          -5.2245    4.6637   -3.6733 H       1  UNL1        0.0000
    120 H          -3.4174    6.3541   -3.4211 H       1  UNL1        0.0000
    121 H          -1.6958    6.0442   -1.6351 H       1  UNL1        0.0000
    122 H          -1.8022    4.1038   -0.1501 H       1  UNL1        0.0000
    123 H           0.1048    3.4815    1.9798 H       1  UNL1        0.0000
    124 H          -1.4643    5.2406    2.6487 H       1  UNL1        0.0000
    125 H          -1.3550    7.4957    1.5871 H       1  UNL1        0.0000
    126 H           0.3641    7.9322   -0.1612 H       1  UNL1        0.0000
    127 H           1.9128    6.1513   -0.8507 H       1  UNL1        0.0000
    128 H           2.8437    5.3926    2.0983 H       1  UNL1        0.0000
    129 H           4.6204    5.1888    3.7930 H       1  UNL1        0.0000
    130 H           6.0364    3.1473    3.8893 H       1  UNL1        0.0000
    131 H           5.6427    1.3068    2.2467 H       1  UNL1        0.0000
    132 H           3.8690    1.5136    0.5718 H       1  UNL1        0.0000
    133 H           2.2167    4.3737   -4.5739 H       1  UNL1        0.0000
    134 H           4.6501    4.8134   -4.6000 H       1  UNL1        0.0000
    135 H           5.9222    4.7552   -2.4442 H       1  UNL1        0.0000
    136 H           4.7629    4.1802   -0.3698 H       1  UNL1        0.0000
    137 H           3.9318   -4.6480    1.0461 H       1  UNL1        0.0000
    138 H           4.4481   -5.2485    3.3713 H       1  UNL1        0.0000
    139 H           4.7836   -3.4748    5.0838 H       1  UNL1        0.0000
    140 H           4.5885   -1.0793    4.4137 H       1  UNL1        0.0000
    141 H           4.0637   -0.4889    2.0895 H       1  UNL1        0.0000
    142 H           5.3178   -2.7117   -2.1787 H       1  UNL1        0.0000
    143 H           5.2236   -4.6642   -3.6733 H       1  UNL1        0.0000
    144 H           3.4164   -6.3544   -3.4208 H       1  UNL1        0.0000
    145 H           1.6951   -6.0443   -1.6346 H       1  UNL1        0.0000
    146 H           1.8019   -4.1037   -0.1498 H       1  UNL1        0.0000
    147 H           7.9099   -0.0997   -0.5157 H       1  UNL1        0.0000
    148 H           7.0513    1.7557   -1.9079 H       1  UNL1        0.0000
    149 H           4.6306    1.7773   -2.5416 H       1  UNL1        0.0000
    150 H           3.1452    0.0558   -1.6936 H       1  UNL1        0.0000
    151 H          -0.1707   -4.6813   -3.1554 H       1  UNL1        0.0000
    152 H          -0.3553   -2.9253   -3.1485 H       1  UNL1        0.0000
    153 H          -0.0714   -3.7848   -1.6509 H       1  UNL1        0.0000
    154 H          -6.2964    3.1746    0.2014 H       1  UNL1        0.0000
    155 H          -7.7657    2.1972    0.2522 H       1  UNL1        0.0000
    156 H          -6.5873    2.1116    1.5680 H       1  UNL1        0.0000
    157 H           0.3551    2.9260   -3.1486 H       1  UNL1        0.0000
    158 H           0.0715    3.7852   -1.6507 H       1  UNL1        0.0000
    159 H           0.1708    4.6821   -3.1550 H       1  UNL1        0.0000
    160 H           6.5873   -2.1124    1.5678 H       1  UNL1        0.0000
    161 H           6.2960   -3.1753    0.2011 H       1  UNL1        0.0000
    162 H           7.7655   -2.1983    0.2519 H       1  UNL1        0.0000
@<TRIPOS>BOND
     1     1    13    1
     2     1     9    1
     3     1    11    1
     4     1     7    1
     5     1     2    1
     6     3    14    1
     7     4    15    1
     8     4     8    1
     9     5    10    1
    10     6    53    1
    11     6    12    1
    12     7     4    1
    13     8     2    1
    14     9     5    1
    15    10     2    1
    16    11     6    1
    17    12     2    1
    18    13     3    1
    19    14     2    1
    20    15    28    1
    21    15    16    1
    22    16    21   ar
    23    16    17   ar
    24    17    18   ar
    25    18    19   ar
    26    18    96    1
    27    19    97    1
    28    20    98    1
    29    20    19   ar
    30    21    20   ar
    31    22    15    1
    32    23    22   ar
    33    23   100    1
    34    24   101    1
    35    24    23   ar
    36    25    26   ar
    37    25    24   ar
    38    26    27   ar
    39    27    22   ar
    40    28    29   ar
    41    29    30   ar
    42    29   104    1
    43    30   105    1
    44    31   106    1
    45    31    30   ar
    46    32    31   ar
    47    33    32   ar
    48    33    28   ar
    49    34     5    1
    50    34    35    1
    51    35    36   ar
    52    35    40   ar
    53    36    37   ar
    54    37   110    1
    55    37    38   ar
    56    38   111    1
    57    39    38   ar
    58    39   112    1
    59    40    39   ar
    60    41    42   ar
    61    41    34    1
    62    42    92    1
    63    43   114    1
    64    43    42   ar
    65    44    43   ar
    66    45    44   ar
    67    45    46   ar
    68    46    41   ar
    69    47    52   ar
    70    47    34    1
    71    48    47   ar
    72    49    50   ar
    73    49    48   ar
    74    50    51   ar
    75    51   121    1
    76    51    52   ar
    77    52   122    1
    78    53    54    1
    79    53    60    1
    80    54    55   ar
    81    55    56   ar
    82    55   123    1
    83    56   124    1
    84    57   125    1
    85    57    56   ar
    86    58    57   ar
    87    59    58   ar
    88    59    54   ar
    89    60    65   ar
    90    60    61   ar
    91    61    62   ar
    92    62    63   ar
    93    62   129    1
    94    63   130    1
    95    64   131    1
    96    64    63   ar
    97    65    64   ar
    98    66    53    1
    99    67    66   ar
   100    68    67   ar
   101    69    68   ar
   102    69    70   ar
   103    70   135    1
   104    70    71   ar
   105    71    66   ar
   106    71   136    1
   107    72     3    1
   108    72    73    1
   109    73    74   ar
   110    73    78   ar
   111    74    75   ar
   112    75   138    1
   113    75    76   ar
   114    76   139    1
   115    77    76   ar
   116    77   140    1
   117    78    77   ar
   118    79    84   ar
   119    79    72    1
   120    80    79   ar
   121    81    82   ar
   122    81    80   ar
   123    82    83   ar
   124    83   145    1
   125    83    84   ar
   126    84   146    1
   127    85    86   ar
   128    85    72    1
   129    86    94    1
   130    87   147    1
   131    87    86   ar
   132    88    87   ar
   133    89    88   ar
   134    89    90   ar
   135    90    85   ar
   136    91    27    1
   137    91   153    1
   138    92   156    1
   139    93    67    1
   140    93   158    1
   141    94   160    1
   142    95    17    1
   143    99    21    1
   144   102    25    1
   145   103    26    1
   146   107    32    1
   147   108    33    1
   148   109    36    1
   149   113    40    1
   150   115    44    1
   151   116    45    1
   152   117    46    1
   153   118    48    1
   154   119    49    1
   155   120    50    1
   156   126    58    1
   157   127    59    1
   158   128    61    1
   159   132    65    1
   160   133    68    1
   161   134    69    1
   162   137    74    1
   163   141    78    1
   164   142    80    1
   165   143    81    1
   166   144    82    1
   167   148    88    1
   168   149    89    1
   169   150    90    1
   170   151    91    1
   171   152    91    1
   172   154    92    1
   173   155    92    1
   174   157    93    1
   175   159    93    1
   176   161    94    1
   177   162    94    1
