@<TRIPOS>MOLECULE
RhRh_S-PhenTTL4_1_sp
 180 199 0 0 0
SMALL
GASTEIGER

@<TRIPOS>ATOM
      1 Rh         -0.7041   -1.1804   -2.5993 Rh      1  UNL1        0.0000
      2 Rh         -1.0673   -0.6288   -0.3015 Rh      1  UNL1        0.0000
      3 C           1.1654   -2.3815   -0.7515 C.3     1  UNL1        0.0000
      4 C          -2.9371    0.6033   -2.1146 C.3     1  UNL1        0.0000
      5 C           0.7236    1.1513   -1.6977 C.3     1  UNL1        0.0000
      6 C          -2.5877   -2.9000   -1.2593 C.3     1  UNL1        0.0000
      7 O          -2.3542   -0.0227   -3.0511 O.3     1  UNL1        0.0000
      8 O          -2.6661    0.5184   -0.8781 O.3     1  UNL1        0.0000
      9 O          -1.9818   -2.7802   -2.3656 O.3     1  UNL1        0.0000
     10 O          -2.3318   -2.2502   -0.1968 O.3     1  UNL1        0.0000
     11 O           0.9286   -2.3040   -1.9988 O.3     1  UNL1        0.0000
     12 O           0.4992   -1.8209    0.1666 O.3     1  UNL1        0.0000
     13 O           0.4789    0.4816   -2.7456 O.3     1  UNL1        0.0000
     14 O           0.2281    0.9489   -0.5465 O.3     1  UNL1        0.0000
     15 N          -3.9569    2.7240   -1.5897 N.am    1  UNL1        0.0000
     16 N          -4.6308   -3.4848   -0.1101 N.am    1  UNL1        0.0000
     17 N           3.4357   -2.6522    0.2760 N.am    1  UNL1        0.0000
     18 N           2.9335    1.9660   -1.0732 N.am    1  UNL1        0.0000
     19 C          -4.1046    1.5467   -2.4489 C.3     1  UNL1        0.0000
     20 C          -2.7196    3.2802   -1.2319 C.2     1  UNL1        0.0000
     21 C          -2.9810    4.1715   -0.0673 C.ar    1  UNL1        0.0000
     22 C          -2.0489    4.8982    0.7244 C.ar    1  UNL1        0.0000
     23 C          -2.5715    5.6679    1.8112 C.ar    1  UNL1        0.0000
     24 C          -4.0141    5.7266    2.0492 C.ar    1  UNL1        0.0000
     25 C          -4.9142    4.9524    1.2199 C.ar    1  UNL1        0.0000
     26 C          -4.3245    4.1631    0.1882 C.ar    1  UNL1        0.0000
     27 C          -4.9692    3.1794   -0.7354 C.2     1  UNL1        0.0000
     28 C          -4.3628    1.8828   -3.9446 C.3     1  UNL1        0.0000
     29 C          -4.8022    0.5959   -4.6693 C.3     1  UNL1        0.0000
     30 C          -5.5237    2.8935   -4.0061 C.3     1  UNL1        0.0000
     31 C          -3.1305    2.4920   -4.6316 C.3     1  UNL1        0.0000
     32 C          -3.7035   -3.9464   -1.1361 C.3     1  UNL1        0.0000
     33 C          -5.1330   -2.1768   -0.0038 C.2     1  UNL1        0.0000
     34 C          -5.6741   -2.0559    1.3831 C.ar    1  UNL1        0.0000
     35 C          -6.2896   -0.9348    2.0123 C.ar    1  UNL1        0.0000
     36 C          -6.6929   -1.0894    3.3781 C.ar    1  UNL1        0.0000
     37 C          -6.4893   -2.3603    4.0660 C.ar    1  UNL1        0.0000
     38 C          -5.8565   -3.4515    3.3906 C.ar    1  UNL1        0.0000
     39 C          -5.4597   -3.2389    2.0385 C.ar    1  UNL1        0.0000
     40 C          -4.7412   -4.1624    1.1167 C.2     1  UNL1        0.0000
     41 C          -4.3778   -4.4458   -2.4505 C.3     1  UNL1        0.0000
     42 C          -5.5614   -5.3445   -2.0465 C.3     1  UNL1        0.0000
     43 C          -4.8863   -3.3007   -3.3415 C.3     1  UNL1        0.0000
     44 C          -3.3607   -5.3043   -3.2276 C.3     1  UNL1        0.0000
     45 C           2.2793   -3.3338   -0.3163 C.3     1  UNL1        0.0000
     46 C           3.4892   -1.5808    1.1971 C.2     1  UNL1        0.0000
     47 C           4.9303   -1.4321    1.5673 C.ar    1  UNL1        0.0000
     48 C           5.5231   -0.4889    2.4561 C.ar    1  UNL1        0.0000
     49 C           6.9342   -0.5903    2.6684 C.ar    1  UNL1        0.0000
     50 C           7.7045   -1.6307    1.9960 C.ar    1  UNL1        0.0000
     51 C           7.0623   -2.5324    1.0910 C.ar    1  UNL1        0.0000
     52 C           5.6585   -2.3756    0.9024 C.ar    1  UNL1        0.0000
     53 C           4.7363   -3.1228    0.0001 C.2     1  UNL1        0.0000
     54 C           1.7131   -4.4917    0.5823 C.3     1  UNL1        0.0000
     55 C           0.4199   -5.0208   -0.0698 C.3     1  UNL1        0.0000
     56 C           2.7462   -5.6312    0.6318 C.3     1  UNL1        0.0000
     57 C           1.4177   -4.0272    2.0171 C.3     1  UNL1        0.0000
     58 C           1.7033    2.3298   -1.7771 C.3     1  UNL1        0.0000
     59 C           3.7258    0.8390   -1.3457 C.2     1  UNL1        0.0000
     60 C           5.0600    1.1233   -0.7400 C.ar    1  UNL1        0.0000
     61 C           6.2875    0.4299   -0.9346 C.ar    1  UNL1        0.0000
     62 C           7.4469    0.9642   -0.2909 C.ar    1  UNL1        0.0000
     63 C           7.3336    2.1431    0.5602 C.ar    1  UNL1        0.0000
     64 C           6.0774    2.8152    0.7026 C.ar    1  UNL1        0.0000
     65 C           4.9645    2.2721   -0.0021 C.ar    1  UNL1        0.0000
     66 C           3.5908    2.8368   -0.1892 C.2     1  UNL1        0.0000
     67 C           1.9813    2.9510   -3.1835 C.3     1  UNL1        0.0000
     68 C           0.6441    3.3814   -3.8116 C.3     1  UNL1        0.0000
     69 C           2.8479    4.2097   -2.9811 C.3     1  UNL1        0.0000
     70 C           2.7206    1.9997   -4.1404 C.3     1  UNL1        0.0000
     71 C           9.0954   -1.7873    2.1917 C.ar    1  UNL1        0.0000
     72 C           7.8065   -3.5341    0.4284 C.ar    1  UNL1        0.0000
     73 C           7.5320    0.3567    3.5286 C.ar    1  UNL1        0.0000
     74 C           4.7753    0.5310    3.0888 C.ar    1  UNL1        0.0000
     75 C           5.4020    1.4409    3.9139 C.ar    1  UNL1        0.0000
     76 C           6.7873    1.3495    4.1350 C.ar    1  UNL1        0.0000
     77 C           9.1630   -3.6533    0.6485 C.ar    1  UNL1        0.0000
     78 C           9.8085   -2.7724    1.5356 C.ar    1  UNL1        0.0000
     79 C           6.3888   -0.7026   -1.7765 C.ar    1  UNL1        0.0000
     80 C           8.6801    0.3181   -0.5354 C.ar    1  UNL1        0.0000
     81 C           7.6133   -1.2964   -1.9926 C.ar    1  UNL1        0.0000
     82 C           8.7635   -0.7797   -1.3685 C.ar    1  UNL1        0.0000
     83 C           8.4395    2.6799    1.2566 C.ar    1  UNL1        0.0000
     84 C           5.9711    3.9719    1.5081 C.ar    1  UNL1        0.0000
     85 C           7.0773    4.4628    2.1693 C.ar    1  UNL1        0.0000
     86 C           8.3174    3.8104    2.0409 C.ar    1  UNL1        0.0000
     87 C          -0.6552    4.8224    0.5002 C.ar    1  UNL1        0.0000
     88 C          -1.6364    6.3411    2.6301 C.ar    1  UNL1        0.0000
     89 C          -4.5473    6.5500    3.0952 C.2     1  UNL1        0.0000
     90 C          -6.3382    4.9813    1.3918 C.2     1  UNL1        0.0000
     91 C           0.2259    5.4854    1.3273 C.ar    1  UNL1        0.0000
     92 C          -0.2762    6.2522    2.3954 C.ar    1  UNL1        0.0000
     93 C          -6.6816    5.7981    2.4333 C.2     1  UNL1        0.0000
     94 C          -5.9112    6.4687    3.1631 C.2     1  UNL1        0.0000
     95 C          -6.4815    0.2962    1.3445 C.ar    1  UNL1        0.0000
     96 C          -7.2746    0.0294    4.0155 C.ar    1  UNL1        0.0000
     97 C          -7.0543    1.3626    2.0048 C.ar    1  UNL1        0.0000
     98 C          -7.4493    1.2268    3.3476 C.ar    1  UNL1        0.0000
     99 C          -6.8917   -2.5709    5.4042 C.ar    1  UNL1        0.0000
    100 C          -5.6419   -4.6810    4.0559 C.ar    1  UNL1        0.0000
    101 C          -6.0481   -4.8424    5.3640 C.ar    1  UNL1        0.0000
    102 C          -6.6783   -3.7801    6.0382 C.ar    1  UNL1        0.0000
    103 H          -4.9945    1.0315   -2.0693 H       1  UNL1        0.0000
    104 H          -4.0039   -0.1457   -4.6912 H       1  UNL1        0.0000
    105 H          -5.0833    0.8331   -5.7003 H       1  UNL1        0.0000
    106 H          -5.6742    0.1479   -4.1799 H       1  UNL1        0.0000
    107 H          -6.4075    2.5255   -3.4773 H       1  UNL1        0.0000
    108 H          -5.7961    3.0743   -5.0504 H       1  UNL1        0.0000
    109 H          -5.2424    3.8538   -3.5646 H       1  UNL1        0.0000
    110 H          -3.3787    2.7458   -5.6675 H       1  UNL1        0.0000
    111 H          -2.2928    1.7941   -4.6377 H       1  UNL1        0.0000
    112 H          -2.8055    3.4066   -4.1295 H       1  UNL1        0.0000
    113 H          -3.2293   -4.8243   -0.6784 H       1  UNL1        0.0000
    114 H          -5.9871   -5.8150   -2.9378 H       1  UNL1        0.0000
    115 H          -6.3528   -4.7695   -1.5587 H       1  UNL1        0.0000
    116 H          -5.2464   -6.1365   -1.3591 H       1  UNL1        0.0000
    117 H          -5.3382   -3.7205   -4.2464 H       1  UNL1        0.0000
    118 H          -4.0732   -2.6372   -3.6408 H       1  UNL1        0.0000
    119 H          -5.6386   -2.6989   -2.8293 H       1  UNL1        0.0000
    120 H          -3.8416   -5.7300   -4.1139 H       1  UNL1        0.0000
    121 H          -2.9993   -6.1376   -2.6138 H       1  UNL1        0.0000
    122 H          -2.5024   -4.7148   -3.5505 H       1  UNL1        0.0000
    123 H           2.6669   -3.7812   -1.2331 H       1  UNL1        0.0000
    124 H           0.0900   -5.9260    0.4482 H       1  UNL1        0.0000
    125 H           0.5737   -5.2722   -1.1245 H       1  UNL1        0.0000
    126 H          -0.3881   -4.2885   -0.0005 H       1  UNL1        0.0000
    127 H           2.3355   -6.4698    1.2030 H       1  UNL1        0.0000
    128 H           3.6707   -5.3199    1.1244 H       1  UNL1        0.0000
    129 H           3.0055   -5.9882   -0.3687 H       1  UNL1        0.0000
    130 H           0.9940   -4.8615    2.5855 H       1  UNL1        0.0000
    131 H           0.7146   -3.1950    2.0355 H       1  UNL1        0.0000
    132 H           2.3331   -3.7139    2.5274 H       1  UNL1        0.0000
    133 H           1.2563    3.1072   -1.1549 H       1  UNL1        0.0000
    134 H           0.8385    3.8788   -4.7671 H       1  UNL1        0.0000
    135 H           0.1064    4.0799   -3.1661 H       1  UNL1        0.0000
    136 H          -0.0090    2.5284   -3.9939 H       1  UNL1        0.0000
    137 H           2.9749    4.7212   -3.9400 H       1  UNL1        0.0000
    138 H           3.8468    3.9624   -2.6097 H       1  UNL1        0.0000
    139 H           2.3891    4.9105   -2.2774 H       1  UNL1        0.0000
    140 H           3.7280    1.7667   -3.7855 H       1  UNL1        0.0000
    141 H           2.8271    2.4899   -5.1138 H       1  UNL1        0.0000
    142 H           2.1801    1.0636   -4.2744 H       1  UNL1        0.0000
    143 H          -6.9847    4.4199    0.7312 H       1  UNL1        0.0000
    144 H          -3.9166    7.1611    3.7262 H       1  UNL1        0.0000
    145 H          -1.9760    6.9302    3.4728 H       1  UNL1        0.0000
    146 H          -0.3049    4.2151   -0.3223 H       1  UNL1        0.0000
    147 H           9.5852    0.6835   -0.0673 H       1  UNL1        0.0000
    148 H           9.4059    2.1963    1.1873 H       1  UNL1        0.0000
    149 H           5.0048    4.4549    1.5862 H       1  UNL1        0.0000
    150 H           5.4889   -1.0848   -2.2419 H       1  UNL1        0.0000
    151 H          -7.5865   -0.0390    5.0504 H       1  UNL1        0.0000
    152 H          -6.1699    0.3883    0.3129 H       1  UNL1        0.0000
    153 H           8.5993    0.3269    3.7085 H       1  UNL1        0.0000
    154 H           3.7107    0.5799    2.8993 H       1  UNL1        0.0000
    155 H           9.6224   -1.1308    2.8730 H       1  UNL1        0.0000
    156 H           7.2840   -4.1926   -0.2545 H       1  UNL1        0.0000
    157 O           3.1082    3.8567    0.2690 O.2     1  UNL1        0.0000
    158 O           3.3520   -0.1563   -1.9356 O.2     1  UNL1        0.0000
    159 O           2.5598   -0.9173    1.6043 O.2     1  UNL1        0.0000
    160 O           5.0030   -3.9717   -0.8304 O.2     1  UNL1        0.0000
    161 O          -5.1058   -1.3472   -0.8944 O.2     1  UNL1        0.0000
    162 O          -4.2960   -5.2764    1.3232 O.2     1  UNL1        0.0000
    163 O          -6.1252    2.7950   -0.7648 O.2     1  UNL1        0.0000
    164 O          -1.6694    3.0508   -1.8002 O.2     1  UNL1        0.0000
    165 H          -7.3812   -1.7762    5.9534 H       1  UNL1        0.0000
    166 H           4.8284    2.2323    4.3848 H       1  UNL1        0.0000
    167 H           7.2815    2.0747    4.7729 H       1  UNL1        0.0000
    168 H           9.7316   -4.4252    0.1396 H       1  UNL1        0.0000
    169 H          10.8757   -2.8680    1.7110 H       1  UNL1        0.0000
    170 H          -5.1522   -5.4805    3.5136 H       1  UNL1        0.0000
    171 H          -5.8832   -5.7867    5.8727 H       1  UNL1        0.0000
    172 H          -7.0008   -3.9090    7.0668 H       1  UNL1        0.0000
    173 H          -7.1890    2.2996    1.4810 H       1  UNL1        0.0000
    174 H          -7.8923    2.0711    3.8669 H       1  UNL1        0.0000
    175 H           7.6867   -2.1694   -2.6319 H       1  UNL1        0.0000
    176 H           9.7237   -1.2584   -1.5267 H       1  UNL1        0.0000
    177 H           6.9925    5.3508    2.7878 H       1  UNL1        0.0000
    178 H           9.1871    4.1956    2.5643 H       1  UNL1        0.0000
    179 H           1.2932    5.3921    1.1585 H       1  UNL1        0.0000
    180 H           0.4114    6.7748    3.0532 H       1  UNL1        0.0000
@<TRIPOS>BOND
     1     1     9    1
     2     1    11    1
     3     1     2    1
     4     2    10    1
     5     2    12    1
     6     3    45    1
     7     3    12    1
     8     4    19    1
     9     4     8    1
    10     5    58    1
    11     5    14    1
    12     6    32    1
    13     6    10    1
    14     7     1    1
    15     7     4    1
    16     8     2    1
    17     9     6    1
    18    11     3    1
    19    13     1    1
    20    13     5    1
    21    14     2    1
    22    15    20   am
    23    15    27   am
    24    16    33   am
    25    16    40   am
    26    17    46   am
    27    18    66   am
    28    19   103    1
    29    19    15    1
    30    20    21    1
    31    21    26   ar
    32    21    22   ar
    33    22    23   ar
    34    23    24   ar
    35    23    88   ar
    36    24    89    1
    37    25    90    1
    38    25    24   ar
    39    26    25   ar
    40    27    26    1
    41    28    19    1
    42    29   106    1
    43    29    28    1
    44    30    28    1
    45    30   109    1
    46    30   107    1
    47    31   112    1
    48    31    28    1
    49    32   113    1
    50    32    16    1
    51    33    34    1
    52    34    35   ar
    53    34    39   ar
    54    35    36   ar
    55    36    96   ar
    56    36    37   ar
    57    37    99   ar
    58    38   100   ar
    59    38    37   ar
    60    39    38   ar
    61    40   162    2
    62    40    39    1
    63    41    42    1
    64    41    32    1
    65    42   115    1
    66    42   116    1
    67    43   119    1
    68    43    41    1
    69    44   121    1
    70    44    41    1
    71    45   123    1
    72    45    17    1
    73    45    54    1
    74    46    47    1
    75    46   159    2
    76    47    48   ar
    77    48    49   ar
    78    48    74   ar
    79    49    73   ar
    80    50    71   ar
    81    50    49   ar
    82    51    50   ar
    83    52    51   ar
    84    52    47   ar
    85    53    17   am
    86    53    52    1
    87    54    56    1
    88    54    57    1
    89    55   126    1
    90    55   124    1
    91    55    54    1
    92    56   128    1
    93    56   127    1
    94    57   131    1
    95    57   132    1
    96    57   130    1
    97    58   133    1
    98    58    18    1
    99    59    18   am
   100    59    60    1
   101    60    65   ar
   102    61    60   ar
   103    61    62   ar
   104    62    63   ar
   105    63    64   ar
   106    63    83   ar
   107    64    84   ar
   108    65    64   ar
   109    66    65    1
   110    66   157    2
   111    67    69    1
   112    67    58    1
   113    68    67    1
   114    68   135    1
   115    69   138    1
   116    69   139    1
   117    70   140    1
   118    70    67    1
   119    71   155    1
   120    72    77   ar
   121    72    51   ar
   122    73   153    1
   123    73    76   ar
   124    74    75   ar
   125    75    76   ar
   126    75   166    1
   127    76   167    1
   128    77    78   ar
   129    78   169    1
   130    78    71   ar
   131    79    61   ar
   132    80    62   ar
   133    80   147    1
   134    81    79   ar
   135    81    82   ar
   136    82    80   ar
   137    83    86   ar
   138    84   149    1
   139    84    85   ar
   140    85   177    1
   141    86    85   ar
   142    86   178    1
   143    87    22   ar
   144    87    91   ar
   145    88   145    1
   146    89    94    2
   147    89   144    1
   148    90    93    2
   149    91    92   ar
   150    92    88   ar
   151    92   180    1
   152    93    94    1
   153    95    97   ar
   154    95    35   ar
   155    96   151    1
   156    97    98   ar
   157    98   174    1
   158    98    96   ar
   159    99   165    1
   160    99   102   ar
   161   100   101   ar
   162   101   171    1
   163   101   102   ar
   164   102   172    1
   165   104    29    1
   166   105    29    1
   167   108    30    1
   168   110    31    1
   169   111    31    1
   170   114    42    1
   171   117    43    1
   172   118    43    1
   173   120    44    1
   174   122    44    1
   175   125    55    1
   176   129    56    1
   177   134    68    1
   178   136    68    1
   179   137    69    1
   180   141    70    1
   181   142    70    1
   182   143    90    1
   183   146    87    1
   184   148    83    1
   185   150    79    1
   186   152    95    1
   187   154    74    1
   188   156    72    1
   189   158    59    2
   190   160    53    2
   191   161    33    2
   192   163    27    2
   193   164    20    2
   194   168    77    1
   195   170   100    1
   196   173    97    1
   197   175    81    1
   198   176    82    1
   199   179    91    1
