@<TRIPOS>MOLECULE
RhRh_4S-MEPY4_2_sp
 74 81 0 0 0
SMALL
GASTEIGER

@<TRIPOS>ATOM
      1 C           0.8774   -2.5939   -1.2474 C.3     1  UNL1        0.0000
      2 C          -1.4507   -2.1895    1.7081 C.3     1  UNL1        0.0000
      3 C          -0.9127    1.6212    1.4467 C.3     1  UNL1        0.0000
      4 C           1.2889    1.1699   -1.3573 C.3     1  UNL1        0.0000
      5 O          -0.2615   -1.9885    2.1095 O.3     1  UNL1        0.0000
      6 O           0.0145    0.9923    2.0629 O.3     1  UNL1        0.0000
      7 O           0.2278    0.7253   -1.9007 O.3     1  UNL1        0.0000
      8 O          -0.2735   -2.2155   -1.6279 O.3     1  UNL1        0.0000
      9 N          -2.0301   -1.6299    0.6641 N.3     1  UNL1        0.0000
     10 N          -1.5094    1.2216    0.3442 N.3     1  UNL1        0.0000
     11 N           1.7918    0.7653   -0.2049 N.3     1  UNL1        0.0000
     12 N           1.5407   -2.1333   -0.2034 N.3     1  UNL1        0.0000
     13 C          -3.7335   -2.8699    1.7797 C.3     1  UNL1        0.0000
     14 C          -3.3651   -2.1671    0.4415 C.3     1  UNL1        0.0000
     15 C          -4.3684   -1.0726    0.1176 C.2     1  UNL1        0.0000
     16 C          -6.1517   -0.4713   -1.2836 C.3     1  UNL1        0.0000
     17 C          -2.6728    3.1716    1.0399 C.3     1  UNL1        0.0000
     18 C          -2.4277    2.2403   -0.1715 C.3     1  UNL1        0.0000
     19 C          -1.7249    2.9618   -1.3178 C.2     1  UNL1        0.0000
     20 C          -1.4801    3.0541   -3.6500 C.3     1  UNL1        0.0000
     21 C           3.3904    2.2645   -1.1278 C.3     1  UNL1        0.0000
     22 C           2.9392    1.5851    0.1883 C.3     1  UNL1        0.0000
     23 C           2.4568    2.6018    1.2209 C.2     1  UNL1        0.0000
     24 C           2.1868    3.0177    3.5178 C.3     1  UNL1        0.0000
     25 C           2.8022   -3.9796   -1.0129 C.3     1  UNL1        0.0000
     26 C           2.8766   -2.6996   -0.1312 C.3     1  UNL1        0.0000
     27 C           3.8979   -1.7271   -0.7143 C.2     1  UNL1        0.0000
     28 C           6.0316   -0.7647   -0.4186 C.3     1  UNL1        0.0000
     29 C          -2.3650   -3.1899    2.3939 C.3     1  UNL1        0.0000
     30 C           1.6707   -3.6516   -1.9968 C.3     1  UNL1        0.0000
     31 C           2.1106    2.2802   -1.9768 C.3     1  UNL1        0.0000
     32 C          -1.4233    2.9695    1.9119 C.3     1  UNL1        0.0000
     33 H          -4.2689   -2.1588    2.4149 H       1  UNL1        0.0000
     34 H          -4.3700   -3.7432    1.6227 H       1  UNL1        0.0000
     35 H          -3.3547   -2.8758   -0.3949 H       1  UNL1        0.0000
     36 H          -6.7177   -0.0797   -0.4354 H       1  UNL1        0.0000
     37 H          -5.6160    0.3469   -1.7710 H       1  UNL1        0.0000
     38 H          -6.8127   -0.9698   -1.9923 H       1  UNL1        0.0000
     39 H          -2.8255    4.2109    0.7418 H       1  UNL1        0.0000
     40 H          -3.5660    2.8180    1.5607 H       1  UNL1        0.0000
     41 H          -3.3371    1.7654   -0.5354 H       1  UNL1        0.0000
     42 H          -0.5058    2.5608   -3.6495 H       1  UNL1        0.0000
     43 H          -2.0602    2.7585   -4.5248 H       1  UNL1        0.0000
     44 H          -1.3436    4.1378   -3.6271 H       1  UNL1        0.0000
     45 H           3.8127    3.2572   -0.9601 H       1  UNL1        0.0000
     46 H           4.1429    1.6297   -1.6021 H       1  UNL1        0.0000
     47 H           3.7116    0.9575    0.6383 H       1  UNL1        0.0000
     48 H           1.1533    2.6718    3.5768 H       1  UNL1        0.0000
     49 H           2.7232    2.7835    4.4366 H       1  UNL1        0.0000
     50 H           2.2158    4.0894    3.3143 H       1  UNL1        0.0000
     51 H           3.7523   -4.2205   -1.4960 H       1  UNL1        0.0000
     52 H           2.5223   -4.8216   -0.3738 H       1  UNL1        0.0000
     53 H           3.1504   -2.9187    0.9014 H       1  UNL1        0.0000
     54 H           6.8805   -0.9119    0.2481 H       1  UNL1        0.0000
     55 H           6.2865   -1.0474   -1.4416 H       1  UNL1        0.0000
     56 H           5.7199    0.2826   -0.4079 H       1  UNL1        0.0000
     57 H          -2.3237   -3.0825    3.4801 H       1  UNL1        0.0000
     58 H          -2.0205   -4.2018    2.1474 H       1  UNL1        0.0000
     59 H           2.0457   -3.2073   -2.9245 H       1  UNL1        0.0000
     60 H           1.0427   -4.5067   -2.2585 H       1  UNL1        0.0000
     61 H           1.5426    3.2084   -1.8666 H       1  UNL1        0.0000
     62 H           2.2797    2.0925   -3.0403 H       1  UNL1        0.0000
     63 H          -0.6433    3.7080    1.7050 H       1  UNL1        0.0000
     64 H          -1.6244    2.9635    2.9867 H       1  UNL1        0.0000
     65 O          -0.8061    3.7434   -1.1819 O.2     1  UNL1        0.0000
     66 O          -4.4523   -0.0071    0.6888 O.2     1  UNL1        0.0000
     67 O           1.7762    3.5681    0.9538 O.2     1  UNL1        0.0000
     68 O           3.7977   -1.1659   -1.7829 O.2     1  UNL1        0.0000
     69 O           4.9816   -1.6027    0.0913 O.3     1  UNL1        0.0000
     70 O           2.8500    2.2826    2.4728 O.3     1  UNL1        0.0000
     71 O          -2.2314    2.6063   -2.5149 O.3     1  UNL1        0.0000
     72 O          -5.2138   -1.4687   -0.8555 O.3     1  UNL1        0.0000
     73 Rh          0.8625   -0.6101    0.9797 Rh      1  UNL1        0.0000
     74 Rh         -0.9988   -0.4607   -0.6454 Rh      1  UNL1        0.0000
@<TRIPOS>BOND
     1     1     8    1
     2     1    12    1
     3     2     5    1
     4     2    29    1
     5     3    32    1
     6     3     6    1
     7     4     7    1
     8     4    11    1
     9     7    74    1
    10     8    74    1
    11     9    74    1
    12     9     2    1
    13    10    74    1
    14    10     3    1
    15    11    22    1
    16    11    73    1
    17    12    26    1
    18    12    73    1
    19    13    29    1
    20    13    33    1
    21    14    35    1
    22    14     9    1
    23    14    13    1
    24    15    14    1
    25    15    66    2
    26    16    72    1
    27    16    36    1
    28    17    40    1
    29    17    32    1
    30    18    41    1
    31    18    10    1
    32    18    17    1
    33    19    65    2
    34    19    18    1
    35    20    42    1
    36    20    44    1
    37    20    71    1
    38    21    45    1
    39    21    22    1
    40    22    47    1
    41    22    23    1
    42    23    70    1
    43    24    48    1
    44    24    49    1
    45    25    52    1
    46    25    26    1
    47    26    53    1
    48    27    26    1
    49    27    69    1
    50    28    56    1
    51    28    69    1
    52    28    54    1
    53    29    57    1
    54    30     1    1
    55    30    25    1
    56    31    61    1
    57    31     4    1
    58    31    21    1
    59    32    64    1
    60    34    13    1
    61    37    16    1
    62    38    16    1
    63    39    17    1
    64    43    20    1
    65    46    21    1
    66    50    24    1
    67    51    25    1
    68    55    28    1
    69    58    29    1
    70    59    30    1
    71    60    30    1
    72    62    31    1
    73    63    32    1
    74    67    23    2
    75    68    27    2
    76    70    24    1
    77    71    19    1
    78    72    15    1
    79    73     6    1
    80    73     5    1
    81    74    73    1
