@<TRIPOS>MOLECULE
RhRh_S-PhenTTL4_2_sp
 180 199 0 0 0
SMALL
GASTEIGER

@<TRIPOS>ATOM
      1 Rh          0.0457   -0.1493   -0.9402 Rh      1  UNL1        0.0000
      2 Rh          0.0413   -0.2468   -3.3292 Rh      1  UNL1        0.0000
      3 C          -1.3734    2.0060   -2.2197 C.3     1  UNL1        0.0000
      4 C           1.4158   -2.4330   -2.0640 C.3     1  UNL1        0.0000
      5 C           2.2191    1.2642   -2.1964 C.3     1  UNL1        0.0000
      6 C          -2.1494   -1.6394   -2.0682 C.3     1  UNL1        0.0000
      7 O           1.1914   -1.8533   -0.9563 O.3     1  UNL1        0.0000
      8 O           1.1515   -1.9694   -3.2132 O.3     1  UNL1        0.0000
      9 O          -1.6563   -1.2969   -0.9504 O.3     1  UNL1        0.0000
     10 O          -1.6539   -1.3936   -3.2098 O.3     1  UNL1        0.0000
     11 O          -1.1006    1.5450   -1.0685 O.3     1  UNL1        0.0000
     12 O          -1.0891    1.4615   -3.3286 O.3     1  UNL1        0.0000
     13 O           1.7323    1.0031   -1.0525 O.3     1  UNL1        0.0000
     14 O           1.7341    0.9123   -3.3132 O.3     1  UNL1        0.0000
     15 N           1.6690   -4.4061   -0.6989 N.am    1  UNL1        0.0000
     16 N          -4.2663   -1.9118   -0.9298 N.am    1  UNL1        0.0000
     17 N          -1.6795    4.1291   -1.1100 N.am    1  UNL1        0.0000
     18 N           4.3295    1.6311   -1.0878 N.am    1  UNL1        0.0000
     19 C           2.0889   -3.8088   -1.9644 C.3     1  UNL1        0.0000
     20 C           0.3562   -4.3751   -0.1948 C.2     1  UNL1        0.0000
     21 C           0.4725   -4.6341    1.2724 C.ar    1  UNL1        0.0000
     22 C          -0.5525   -4.6625    2.2601 C.ar    1  UNL1        0.0000
     23 C          -0.1505   -4.8759    3.6185 C.ar    1  UNL1        0.0000
     24 C           1.2588   -5.0790    3.9537 C.ar    1  UNL1        0.0000
     25 C           2.2581   -5.0389    2.9085 C.ar    1  UNL1        0.0000
     26 C           1.7955   -4.8027    1.5797 C.ar    1  UNL1        0.0000
     27 C           2.5914   -4.6363    0.3300 C.2     1  UNL1        0.0000
     28 C           1.9883   -4.7584   -3.1958 C.3     1  UNL1        0.0000
     29 C           2.8403   -4.1742   -4.3393 C.3     1  UNL1        0.0000
     30 C           2.5961   -6.1120   -2.7825 C.3     1  UNL1        0.0000
     31 C           0.5424   -4.9737   -3.6719 C.3     1  UNL1        0.0000
     32 C          -3.4357   -2.4676   -1.9932 C.3     1  UNL1        0.0000
     33 C          -4.7686   -2.6972    0.1136 C.2     1  UNL1        0.0000
     34 C          -5.4389   -1.7573    1.0560 C.ar    1  UNL1        0.0000
     35 C          -6.1629   -2.0496    2.2482 C.ar    1  UNL1        0.0000
     36 C          -6.6486   -0.9389    3.0074 C.ar    1  UNL1        0.0000
     37 C          -6.4277    0.4246    2.5367 C.ar    1  UNL1        0.0000
     38 C          -5.7219    0.6613    1.3122 C.ar    1  UNL1        0.0000
     39 C          -5.2398   -0.4796    0.6064 C.ar    1  UNL1        0.0000
     40 C          -4.4804   -0.5458   -0.6825 C.2     1  UNL1        0.0000
     41 C          -4.2073   -2.7302   -3.3215 C.3     1  UNL1        0.0000
     42 C          -4.5909   -1.4318   -4.0500 C.3     1  UNL1        0.0000
     43 C          -3.3389   -3.6216   -4.2308 C.3     1  UNL1        0.0000
     44 C          -5.4917   -3.5080   -2.9756 C.3     1  UNL1        0.0000
     45 C          -2.1550    3.3232   -2.2292 C.3     1  UNL1        0.0000
     46 C          -0.3356    4.3172   -0.7485 C.2     1  UNL1        0.0000
     47 C          -0.3629    4.9788    0.5931 C.ar    1  UNL1        0.0000
     48 C           0.7246    5.4275    1.3985 C.ar    1  UNL1        0.0000
     49 C           0.4030    6.0301    2.6580 C.ar    1  UNL1        0.0000
     50 C          -0.9882    6.1563    3.0795 C.ar    1  UNL1        0.0000
     51 C          -2.0425    5.6947    2.2298 C.ar    1  UNL1        0.0000
     52 C          -1.6688    5.1129    0.9834 C.ar    1  UNL1        0.0000
     53 C          -2.5388    4.5505   -0.0880 C.2     1  UNL1        0.0000
     54 C          -2.2607    4.0993   -3.5759 C.3     1  UNL1        0.0000
     55 C          -2.9953    5.4236   -3.2930 C.3     1  UNL1        0.0000
     56 C          -0.8882    4.4068   -4.1973 C.3     1  UNL1        0.0000
     57 C          -3.1175    3.2736   -4.5553 C.3     1  UNL1        0.0000
     58 C           3.4842    2.1271   -2.1703 C.3     1  UNL1        0.0000
     59 C           4.5602    0.2772   -0.7925 C.2     1  UNL1        0.0000
     60 C           5.2531    0.2607    0.5329 C.ar    1  UNL1        0.0000
     61 C           5.7612   -0.8494    1.2690 C.ar    1  UNL1        0.0000
     62 C           6.3736   -0.5724    2.5342 C.ar    1  UNL1        0.0000
     63 C           6.4522    0.7983    3.0286 C.ar    1  UNL1        0.0000
     64 C           5.9395    1.8780    2.2423 C.ar    1  UNL1        0.0000
     65 C           5.3483    1.5487    0.9876 C.ar    1  UNL1        0.0000
     66 C           4.7374    2.4522   -0.0293 C.2     1  UNL1        0.0000
     67 C           4.2363    2.3681   -3.5100 C.3     1  UNL1        0.0000
     68 C           5.4842    3.2157   -3.1974 C.3     1  UNL1        0.0000
     69 C           4.6736    1.0613   -4.1906 C.3     1  UNL1        0.0000
     70 C           3.3210    3.1818   -4.4459 C.3     1  UNL1        0.0000
     71 C          -1.3556    6.7241    4.3207 C.ar    1  UNL1        0.0000
     72 C          -3.3921    5.8120    2.6350 C.ar    1  UNL1        0.0000
     73 C           1.4769    6.4853    3.4548 C.ar    1  UNL1        0.0000
     74 C           2.0718    5.2957    0.9925 C.ar    1  UNL1        0.0000
     75 C           3.0901    5.7578    1.8000 C.ar    1  UNL1        0.0000
     76 C           2.7878    6.3561    3.0360 C.ar    1  UNL1        0.0000
     77 C          -3.7068    6.3718    3.8551 C.ar    1  UNL1        0.0000
     78 C          -2.6798    6.8299    4.7009 C.ar    1  UNL1        0.0000
     79 C           5.6834   -2.1755    0.7873 C.ar    1  UNL1        0.0000
     80 C           6.8883   -1.6681    3.2619 C.ar    1  UNL1        0.0000
     81 C           6.2115   -3.2147    1.5246 C.ar    1  UNL1        0.0000
     82 C           6.8139   -2.9573    2.7688 C.ar    1  UNL1        0.0000
     83 C           7.0256    1.1205    4.2795 C.ar    1  UNL1        0.0000
     84 C           6.0171    3.2081    2.7155 C.ar    1  UNL1        0.0000
     85 C           6.5853    3.4788    3.9423 C.ar    1  UNL1        0.0000
     86 C           7.0911    2.4262    4.7272 C.ar    1  UNL1        0.0000
     87 C          -1.9141   -4.4589    1.9374 C.ar    1  UNL1        0.0000
     88 C          -1.1649   -4.8654    4.6028 C.ar    1  UNL1        0.0000
     89 C           1.6623   -5.3077    5.3110 C.2     1  UNL1        0.0000
     90 C           3.6576   -5.2132    3.1709 C.2     1  UNL1        0.0000
     91 C          -2.8700   -4.4546    2.9306 C.ar    1  UNL1        0.0000
     92 C          -2.4898   -4.6569    4.2688 C.ar    1  UNL1        0.0000
     93 C           3.8733   -5.4143    4.5054 C.2     1  UNL1        0.0000
     94 C           3.0179   -5.4566    5.4233 C.2     1  UNL1        0.0000
     95 C          -6.4141   -3.3744    2.6765 C.ar    1  UNL1        0.0000
     96 C          -7.3465   -1.2251    4.2030 C.ar    1  UNL1        0.0000
     97 C          -7.1026   -3.6094    3.8485 C.ar    1  UNL1        0.0000
     98 C          -7.5635   -2.5252    4.6181 C.ar    1  UNL1        0.0000
     99 C          -6.8992    1.5524    3.2444 C.ar    1  UNL1        0.0000
    100 C          -5.5159    1.9806    0.8492 C.ar    1  UNL1        0.0000
    101 C          -6.0015    3.0534    1.5672 C.ar    1  UNL1        0.0000
    102 C          -6.6954    2.8349    2.7706 C.ar    1  UNL1        0.0000
    103 H           3.1547   -3.5948   -1.8178 H       1  UNL1        0.0000
    104 H           2.4467   -3.2184   -4.6851 H       1  UNL1        0.0000
    105 H           2.8488   -4.8719   -5.1826 H       1  UNL1        0.0000
    106 H           3.8779   -4.0252   -4.0198 H       1  UNL1        0.0000
    107 H           3.6058   -5.9906   -2.3777 H       1  UNL1        0.0000
    108 H           2.6528   -6.7710   -3.6541 H       1  UNL1        0.0000
    109 H           1.9859   -6.6096   -2.0239 H       1  UNL1        0.0000
    110 H           0.5425   -5.6462   -4.5362 H       1  UNL1        0.0000
    111 H           0.0761   -4.0331   -3.9692 H       1  UNL1        0.0000
    112 H          -0.0737   -5.4214   -2.8900 H       1  UNL1        0.0000
    113 H          -3.1111   -3.4415   -1.6075 H       1  UNL1        0.0000
    114 H          -5.1462   -1.6777   -4.9613 H       1  UNL1        0.0000
    115 H          -3.7093   -0.8530   -4.3275 H       1  UNL1        0.0000
    116 H          -5.2287   -0.7988   -3.4286 H       1  UNL1        0.0000
    117 H          -3.9101   -3.9030   -5.1212 H       1  UNL1        0.0000
    118 H          -3.0493   -4.5439   -3.7149 H       1  UNL1        0.0000
    119 H          -2.4321   -3.1090   -4.5503 H       1  UNL1        0.0000
    120 H          -6.0036   -3.7952   -3.8989 H       1  UNL1        0.0000
    121 H          -6.1853   -2.8991   -2.3886 H       1  UNL1        0.0000
    122 H          -5.2728   -4.4159   -2.4063 H       1  UNL1        0.0000
    123 H          -3.1752    3.0394   -1.9440 H       1  UNL1        0.0000
    124 H          -3.1826    5.9472   -4.2352 H       1  UNL1        0.0000
    125 H          -2.4004    6.0849   -2.6567 H       1  UNL1        0.0000
    126 H          -3.9561    5.2524   -2.7981 H       1  UNL1        0.0000
    127 H          -1.0299    4.9528   -5.1360 H       1  UNL1        0.0000
    128 H          -0.3320    3.4929   -4.4103 H       1  UNL1        0.0000
    129 H          -0.2786    5.0250   -3.5350 H       1  UNL1        0.0000
    130 H          -3.2838    3.8494   -5.4713 H       1  UNL1        0.0000
    131 H          -4.0978    3.0447   -4.1224 H       1  UNL1        0.0000
    132 H          -2.6326    2.3344   -4.8206 H       1  UNL1        0.0000
    133 H           3.1338    3.1045   -1.8189 H       1  UNL1        0.0000
    134 H           5.9846    3.4893   -4.1312 H       1  UNL1        0.0000
    135 H           6.2016    2.6621   -2.5849 H       1  UNL1        0.0000
    136 H           5.2234    4.1344   -2.6639 H       1  UNL1        0.0000
    137 H           5.2133    1.2961   -5.1142 H       1  UNL1        0.0000
    138 H           3.8161    0.4351   -4.4394 H       1  UNL1        0.0000
    139 H           5.3408    0.4810   -3.5489 H       1  UNL1        0.0000
    140 H           2.4387    2.6130   -4.7392 H       1  UNL1        0.0000
    141 H           3.8727    3.4571   -5.3504 H       1  UNL1        0.0000
    142 H           2.9873    4.1067   -3.9623 H       1  UNL1        0.0000
    143 H           4.3775   -5.1684    2.3674 H       1  UNL1        0.0000
    144 H           0.9517   -5.3527    6.1247 H       1  UNL1        0.0000
    145 H          -0.9132   -5.0142    5.6451 H       1  UNL1        0.0000
    146 H          -2.1907   -4.3048    0.9032 H       1  UNL1        0.0000
    147 H           7.3575   -1.5068    4.2245 H       1  UNL1        0.0000
    148 H           7.4225    0.3353    4.9107 H       1  UNL1        0.0000
    149 H           5.6171    3.9972    2.0929 H       1  UNL1        0.0000
    150 H           5.2004   -2.3592   -0.1629 H       1  UNL1        0.0000
    151 H          -7.7268   -0.4158    4.8137 H       1  UNL1        0.0000
    152 H          -6.0647   -4.1906    2.0561 H       1  UNL1        0.0000
    153 H           1.2810    6.9491    4.4136 H       1  UNL1        0.0000
    154 H           2.2928    4.8244    0.0449 H       1  UNL1        0.0000
    155 H          -0.5913    7.0843    4.9979 H       1  UNL1        0.0000
    156 H          -4.1610    5.4480    1.9669 H       1  UNL1        0.0000
    157 O           4.5967    3.6625   -0.0060 O.2     1  UNL1        0.0000
    158 O           4.2307   -0.6536   -1.5040 O.2     1  UNL1        0.0000
    159 O           0.6190    3.9872   -1.4280 O.2     1  UNL1        0.0000
    160 O          -3.7529    4.4519   -0.1307 O.2     1  UNL1        0.0000
    161 O          -4.6381   -3.9070    0.1929 O.2     1  UNL1        0.0000
    162 O          -4.1082    0.3583   -1.4071 O.2     1  UNL1        0.0000
    163 O           3.7989   -4.6702    0.1690 O.2     1  UNL1        0.0000
    164 O          -0.6401   -4.1741   -0.8626 O.2     1  UNL1        0.0000
    165 H          -7.4361    1.4219    4.1758 H       1  UNL1        0.0000
    166 H           4.1159    5.6502    1.4702 H       1  UNL1        0.0000
    167 H           3.5900    6.7186    3.6716 H       1  UNL1        0.0000
    168 H          -4.7438    6.4579    4.1637 H       1  UNL1        0.0000
    169 H          -2.9272    7.2697    5.6621 H       1  UNL1        0.0000
    170 H          -4.9684    2.1359   -0.0705 H       1  UNL1        0.0000
    171 H          -5.8370    4.0566    1.1942 H       1  UNL1        0.0000
    172 H          -7.0743    3.6802    3.3370 H       1  UNL1        0.0000
    173 H          -7.2941   -4.6272    4.1727 H       1  UNL1        0.0000
    174 H          -8.1031   -2.7091    5.5419 H       1  UNL1        0.0000
    175 H           6.1472   -4.2253    1.1398 H       1  UNL1        0.0000
    176 H           7.2217   -3.7774    3.3518 H       1  UNL1        0.0000
    177 H           6.6413    4.5009    4.3032 H       1  UNL1        0.0000
    178 H           7.5366    2.6388    5.6940 H       1  UNL1        0.0000
    179 H          -3.9082   -4.2918    2.6734 H       1  UNL1        0.0000
    180 H          -3.2438   -4.6468    5.0499 H       1  UNL1        0.0000
@<TRIPOS>BOND
     1     2    12    1
     2     2    14    1
     3     2     8    1
     4     2    10    1
     5     2     1    1
     6     3    45    1
     7     3    11    1
     8     4    19    1
     9     4     7    1
    10     5    58    1
    11     5    13    1
    12     6    32    1
    13     6     9    1
    14     7     1    1
    15     8     4    1
    16     9     1    1
    17    10     6    1
    18    11     1    1
    19    12     3    1
    20    13     1    1
    21    14     5    1
    22    15    20   am
    23    15    27   am
    24    16    40   am
    25    16    33   am
    26    17    46   am
    27    17    53   am
    28    18    59   am
    29    18    66   am
    30    19   103    1
    31    19    15    1
    32    20    21    1
    33    21    26   ar
    34    21    22   ar
    35    22    23   ar
    36    23    24   ar
    37    23    88   ar
    38    24    89    1
    39    25    90    1
    40    25    24   ar
    41    26    25   ar
    42    27    26    1
    43    28    30    1
    44    28    19    1
    45    29   106    1
    46    29    28    1
    47    30   107    1
    48    30   109    1
    49    31    28    1
    50    31   112    1
    51    32   113    1
    52    32    16    1
    53    33   161    2
    54    33    34    1
    55    34    35   ar
    56    35    95   ar
    57    35    36   ar
    58    36    96   ar
    59    37    36   ar
    60    37    99   ar
    61    38    37   ar
    62    39    34   ar
    63    39    38   ar
    64    40    39    1
    65    41    44    1
    66    41    32    1
    67    42   116    1
    68    42    41    1
    69    43   118    1
    70    43    41    1
    71    44   122    1
    72    44   121    1
    73    45   123    1
    74    45    17    1
    75    46    47    1
    76    47    52   ar
    77    47    48   ar
    78    48    49   ar
    79    49    50   ar
    80    49    73   ar
    81    50    71   ar
    82    51    72   ar
    83    51    50   ar
    84    52    51   ar
    85    53    52    1
    86    54    55    1
    87    54    45    1
    88    55   126    1
    89    55   125    1
    90    56    54    1
    91    56   129    1
    92    57   131    1
    93    57    54    1
    94    58   133    1
    95    58    18    1
    96    59    60    1
    97    60    65   ar
    98    60    61   ar
    99    61    62   ar
   100    62    63   ar
   101    62    80   ar
   102    63    83   ar
   103    64    84   ar
   104    64    63   ar
   105    65    64   ar
   106    66   157    2
   107    66    65    1
   108    67    68    1
   109    67    58    1
   110    68   136    1
   111    68   135    1
   112    69   139    1
   113    69    67    1
   114    70   142    1
   115    70    67    1
   116    71    78   ar
   117    71   155    1
   118    72    77   ar
   119    73   153    1
   120    74    48   ar
   121    74    75   ar
   122    75    76   ar
   123    76    73   ar
   124    76   167    1
   125    77   168    1
   126    77    78   ar
   127    78   169    1
   128    79    61   ar
   129    79    81   ar
   130    80   147    1
   131    81    82   ar
   132    82    80   ar
   133    82   176    1
   134    83    86   ar
   135    83   148    1
   136    84    85   ar
   137    85   177    1
   138    85    86   ar
   139    86   178    1
   140    87    22   ar
   141    87    91   ar
   142    88   145    1
   143    89    94    2
   144    89   144    1
   145    90    93    2
   146    91    92   ar
   147    92    88   ar
   148    92   180    1
   149    93    94    1
   150    95    97   ar
   151    96    98   ar
   152    96   151    1
   153    97   173    1
   154    97    98   ar
   155    98   174    1
   156    99   165    1
   157   100    38   ar
   158   100   101   ar
   159   101   102   ar
   160   102    99   ar
   161   102   172    1
   162   104    29    1
   163   105    29    1
   164   108    30    1
   165   110    31    1
   166   111    31    1
   167   114    42    1
   168   115    42    1
   169   117    43    1
   170   119    43    1
   171   120    44    1
   172   124    55    1
   173   127    56    1
   174   128    56    1
   175   130    57    1
   176   132    57    1
   177   134    68    1
   178   137    69    1
   179   138    69    1
   180   140    70    1
   181   141    70    1
   182   143    90    1
   183   146    87    1
   184   149    84    1
   185   150    79    1
   186   152    95    1
   187   154    74    1
   188   156    72    1
   189   158    59    2
   190   159    46    2
   191   160    53    2
   192   162    40    2
   193   163    27    2
   194   164    20    2
   195   166    75    1
   196   170   100    1
   197   171   101    1
   198   175    81    1
   199   179    91    1
