@<TRIPOS>MOLECULE
RhRh_S-PhenTTL4_3_sp
 180 199 0 0 0
SMALL
GASTEIGER

@<TRIPOS>ATOM
      1 Rh          0.1976    0.0422   -3.3999 Rh      1  UNL1        0.0000
      2 Rh          0.1629    0.0597   -1.0094 Rh      1  UNL1        0.0000
      3 C           2.1796   -1.6506   -2.1723 C.3     1  UNL1        0.0000
      4 C          -1.8311    1.7324   -2.2479 C.3     1  UNL1        0.0000
      5 C           1.8206    2.0991   -2.2072 C.3     1  UNL1        0.0000
      6 C          -1.4543   -2.0014   -2.2005 C.3     1  UNL1        0.0000
      7 O          -1.3933    1.3369   -3.3695 O.3     1  UNL1        0.0000
      8 O          -1.4511    1.3189   -1.1090 O.3     1  UNL1        0.0000
      9 O          -1.0628   -1.5739   -3.3288 O.3     1  UNL1        0.0000
     10 O          -1.1002   -1.5536   -1.0672 O.3     1  UNL1        0.0000
     11 O           1.7831   -1.2528   -3.3095 O.3     1  UNL1        0.0000
     12 O           1.7823   -1.2104   -1.0504 O.3     1  UNL1        0.0000
     13 O           1.4662    1.6552   -3.3407 O.3     1  UNL1        0.0000
     14 O           1.4059    1.6843   -1.0804 O.3     1  UNL1        0.0000
     15 N          -2.7881    3.5777   -1.0172 N.am    1  UNL1        0.0000
     16 N          -3.3897   -2.9569   -1.1110 N.am    1  UNL1        0.0000
     17 N           3.0383   -3.5356   -0.9192 N.am    1  UNL1        0.0000
     18 N           3.6465    3.0582   -0.9640 N.am    1  UNL1        0.0000
     19 C          -2.9494    2.7799   -2.2287 C.3     1  UNL1        0.0000
     20 C          -3.7720    3.6005   -0.0216 C.2     1  UNL1        0.0000
     21 C          -3.1454    4.2364    1.1727 C.ar    1  UNL1        0.0000
     22 C          -3.7148    4.5012    2.4508 C.ar    1  UNL1        0.0000
     23 C          -2.8729    5.1166    3.4306 C.ar    1  UNL1        0.0000
     24 C          -1.4871    5.4580    3.1113 C.ar    1  UNL1        0.0000
     25 C          -0.9569    5.1517    1.7985 C.ar    1  UNL1        0.0000
     26 C          -1.8450    4.5349    0.8679 C.ar    1  UNL1        0.0000
     27 C          -1.5746    4.0970   -0.5373 C.2     1  UNL1        0.0000
     28 C          -3.1853    3.6160   -3.5229 C.3     1  UNL1        0.0000
     29 C          -4.2511    4.6802   -3.1990 C.3     1  UNL1        0.0000
     30 C          -1.9102    4.3118   -4.0270 C.3     1  UNL1        0.0000
     31 C          -3.7496    2.6861   -4.6148 C.3     1  UNL1        0.0000
     32 C          -2.4034   -3.2025   -2.1585 C.3     1  UNL1        0.0000
     33 C          -4.0436   -1.7381   -0.8677 C.2     1  UNL1        0.0000
     34 C          -4.8181   -1.9372    0.3983 C.ar    1  UNL1        0.0000
     35 C          -5.6804   -1.0302    1.0811 C.ar    1  UNL1        0.0000
     36 C          -6.3005   -1.4959    2.2860 C.ar    1  UNL1        0.0000
     37 C          -6.0535   -2.8526    2.7642 C.ar    1  UNL1        0.0000
     38 C          -5.1981   -3.7304    2.0270 C.ar    1  UNL1        0.0000
     39 C          -4.5875   -3.2088    0.8497 C.ar    1  UNL1        0.0000
     40 C          -3.6245   -3.8693   -0.0766 C.2     1  UNL1        0.0000
     41 C          -3.0217   -3.6898   -3.5026 C.3     1  UNL1        0.0000
     42 C          -3.9781   -4.8558   -3.1858 C.3     1  UNL1        0.0000
     43 C          -3.8046   -2.5852   -4.2307 C.3     1  UNL1        0.0000
     44 C          -1.8905   -4.2281   -4.4003 C.3     1  UNL1        0.0000
     45 C           3.2561   -2.7445   -2.1261 C.3     1  UNL1        0.0000
     46 C           1.7864   -3.9493   -0.4319 C.2     1  UNL1        0.0000
     47 C           2.0236   -4.3981    0.9741 C.ar    1  UNL1        0.0000
     48 C           1.0784   -4.8180    1.9542 C.ar    1  UNL1        0.0000
     49 C           1.5854   -5.1484    3.2526 C.ar    1  UNL1        0.0000
     50 C           3.0212   -5.1130    3.5118 C.ar    1  UNL1        0.0000
     51 C           3.9285   -4.7035    2.4843 C.ar    1  UNL1        0.0000
     52 C           3.3648   -4.3108    1.2355 C.ar    1  UNL1        0.0000
     53 C           4.0340   -3.7012    0.0511 C.2     1  UNL1        0.0000
     54 C           3.4658   -3.5986   -3.4158 C.3     1  UNL1        0.0000
     55 C           4.4752   -4.7131   -3.0802 C.3     1  UNL1        0.0000
     56 C           2.1617   -4.2375   -3.9213 C.3     1  UNL1        0.0000
     57 C           4.0838   -2.7068   -4.5100 C.3     1  UNL1        0.0000
     58 C           2.8061    3.2711   -2.1396 C.3     1  UNL1        0.0000
     59 C           4.1595    1.8085   -0.5677 C.2     1  UNL1        0.0000
     60 C           4.5485    1.9611    0.8657 C.ar    1  UNL1        0.0000
     61 C           5.0923    0.9897    1.7544 C.ar    1  UNL1        0.0000
     62 C           5.3154    1.3933    3.1105 C.ar    1  UNL1        0.0000
     63 C           5.0161    2.7591    3.5291 C.ar    1  UNL1        0.0000
     64 C           4.4763    3.6979    2.5932 C.ar    1  UNL1        0.0000
     65 C           4.2492    3.2364    1.2643 C.ar    1  UNL1        0.0000
     66 C           3.6272    3.9521    0.1155 C.2     1  UNL1        0.0000
     67 C           3.5862    3.6509   -3.4304 C.3     1  UNL1        0.0000
     68 C           2.5863    4.1987   -4.4674 C.3     1  UNL1        0.0000
     69 C           4.5667    4.7797   -3.0596 C.3     1  UNL1        0.0000
     70 C           4.3726    2.4699   -4.0208 C.3     1  UNL1        0.0000
     71 C           3.5754   -5.4792    4.7596 C.ar    1  UNL1        0.0000
     72 C           5.3233   -4.7104    2.7178 C.ar    1  UNL1        0.0000
     73 C           0.6461   -5.5023    4.2466 C.ar    1  UNL1        0.0000
     74 C          -0.3101   -4.8657    1.6925 C.ar    1  UNL1        0.0000
     75 C          -1.1923   -5.2159    2.6930 C.ar    1  UNL1        0.0000
     76 C          -0.7090   -5.5315    3.9755 C.ar    1  UNL1        0.0000
     77 C           5.8232   -5.0779    3.9497 C.ar    1  UNL1        0.0000
     78 C           4.9397   -5.4557    4.9779 C.ar    1  UNL1        0.0000
     79 C           5.3805   -0.3315    1.3434 C.ar    1  UNL1        0.0000
     80 C           5.8156    0.4202    4.0049 C.ar    1  UNL1        0.0000
     81 C           5.8750   -1.2467    2.2478 C.ar    1  UNL1        0.0000
     82 C           6.0858   -0.8690    3.5857 C.ar    1  UNL1        0.0000
     83 C           5.2312    3.2115    4.8504 C.ar    1  UNL1        0.0000
     84 C           4.1740    5.0188    2.9956 C.ar    1  UNL1        0.0000
     85 C           4.3902    5.4161    4.2982 C.ar    1  UNL1        0.0000
     86 C           4.9251    4.5057    5.2275 C.ar    1  UNL1        0.0000
     87 C          -5.0508    4.1601    2.7641 C.ar    1  UNL1        0.0000
     88 C          -3.4379    5.3643    4.7031 C.ar    1  UNL1        0.0000
     89 C          -0.6466    6.0868    4.0872 C.2     1  UNL1        0.0000
     90 C           0.3984    5.4436    1.4261 C.2     1  UNL1        0.0000
     91 C          -5.5602    4.4173    4.0187 C.ar    1  UNL1        0.0000
     92 C          -4.7459    5.0250    4.9914 C.ar    1  UNL1        0.0000
     93 C           1.0408    6.0282    2.4756 C.2     1  UNL1        0.0000
     94 C           0.6239    6.3179    3.6240 C.2     1  UNL1        0.0000
     95 C          -5.9270    0.2788    0.6096 C.ar    1  UNL1        0.0000
     96 C          -7.1553   -0.6003    2.9660 C.ar    1  UNL1        0.0000
     97 C          -6.7784    1.1171    1.2988 C.ar    1  UNL1        0.0000
     98 C          -7.3930    0.6730    2.4830 C.ar    1  UNL1        0.0000
     99 C          -6.6419   -3.3598    3.9451 C.ar    1  UNL1        0.0000
    100 C          -4.9903   -5.0606    2.4618 C.ar    1  UNL1        0.0000
    101 C          -5.5874   -5.5165    3.6187 C.ar    1  UNL1        0.0000
    102 C          -6.4118   -4.6556    4.3665 C.ar    1  UNL1        0.0000
    103 H          -3.8665    2.2054   -2.0505 H       1  UNL1        0.0000
    104 H          -5.1549    4.2279   -2.7792 H       1  UNL1        0.0000
    105 H          -4.5273    5.2128   -4.1139 H       1  UNL1        0.0000
    106 H          -3.8777    5.4174   -2.4829 H       1  UNL1        0.0000
    107 H          -1.5135    5.0073   -3.2850 H       1  UNL1        0.0000
    108 H          -2.1420    4.8776   -4.9355 H       1  UNL1        0.0000
    109 H          -1.1274    3.5891   -4.2627 H       1  UNL1        0.0000
    110 H          -4.0053    3.2756   -5.5009 H       1  UNL1        0.0000
    111 H          -4.6626    2.1864   -4.2719 H       1  UNL1        0.0000
    112 H          -3.0281    1.9222   -4.9040 H       1  UNL1        0.0000
    113 H          -1.7863   -4.0208   -1.7690 H       1  UNL1        0.0000
    114 H          -4.3517   -5.2851   -4.1202 H       1  UNL1        0.0000
    115 H          -4.8433   -4.5204   -2.6066 H       1  UNL1        0.0000
    116 H          -3.4773   -5.6462   -2.6195 H       1  UNL1        0.0000
    117 H          -4.2314   -2.9914   -5.1538 H       1  UNL1        0.0000
    118 H          -3.1617   -1.7427   -4.4876 H       1  UNL1        0.0000
    119 H          -4.6272   -2.2084   -3.6182 H       1  UNL1        0.0000
    120 H          -2.3200   -4.6760   -5.3020 H       1  UNL1        0.0000
    121 H          -1.3144   -5.0039   -3.8837 H       1  UNL1        0.0000
    122 H          -1.2048   -3.4366   -4.7012 H       1  UNL1        0.0000
    123 H           4.1973   -2.2136   -1.9365 H       1  UNL1        0.0000
    124 H           4.7267   -5.2637   -3.9917 H       1  UNL1        0.0000
    125 H           4.0612   -5.4276   -2.3633 H       1  UNL1        0.0000
    126 H           5.3988   -4.3063   -2.6582 H       1  UNL1        0.0000
    127 H           2.3728   -4.8330   -4.8157 H       1  UNL1        0.0000
    128 H           1.4190   -3.4816   -4.1791 H       1  UNL1        0.0000
    129 H           1.7232   -4.8973   -3.1697 H       1  UNL1        0.0000
    130 H           4.3181   -3.3159   -5.3888 H       1  UNL1        0.0000
    131 H           5.0179   -2.2509   -4.1628 H       1  UNL1        0.0000
    132 H           3.4040   -1.9107   -4.8123 H       1  UNL1        0.0000
    133 H           2.1856    4.1363   -1.8753 H       1  UNL1        0.0000
    134 H           3.1300    4.5594   -5.3464 H       1  UNL1        0.0000
    135 H           2.0178    5.0414   -4.0582 H       1  UNL1        0.0000
    136 H           1.8807    3.4324   -4.7889 H       1  UNL1        0.0000
    137 H           5.0586    5.1513   -3.9636 H       1  UNL1        0.0000
    138 H           5.3433    4.4254   -2.3763 H       1  UNL1        0.0000
    139 H           4.0513    5.6170   -2.5791 H       1  UNL1        0.0000
    140 H           5.0990    2.0774   -3.3061 H       1  UNL1        0.0000
    141 H           4.9160    2.8045   -4.9109 H       1  UNL1        0.0000
    142 H           3.7089    1.6530   -4.3083 H       1  UNL1        0.0000
    143 H           0.7870    5.2077    0.4467 H       1  UNL1        0.0000
    144 H          -1.0062    6.3396    5.0755 H       1  UNL1        0.0000
    145 H          -2.8428    5.8244    5.4813 H       1  UNL1        0.0000
    146 H          -5.6503    3.6868    1.9988 H       1  UNL1        0.0000
    147 H           5.9872    0.6769    5.0430 H       1  UNL1        0.0000
    148 H           5.6440    2.5386    5.5917 H       1  UNL1        0.0000
    149 H           3.7631    5.7005    2.2619 H       1  UNL1        0.0000
    150 H           5.2015   -0.6113    0.3136 H       1  UNL1        0.0000
    151 H          -7.6451   -0.9085    3.8814 H       1  UNL1        0.0000
    152 H          -5.4350    0.6129   -0.2937 H       1  UNL1        0.0000
    153 H           0.9822   -5.7499    5.2460 H       1  UNL1        0.0000
    154 H          -0.6673   -4.6210    0.7014 H       1  UNL1        0.0000
    155 H           2.9265   -5.7956    5.5667 H       1  UNL1        0.0000
    156 H           5.9820   -4.4379    1.9031 H       1  UNL1        0.0000
    157 O           3.1572    5.0760    0.0651 O.2     1  UNL1        0.0000
    158 O           4.2357    0.8317   -1.2892 O.2     1  UNL1        0.0000
    159 O           0.7536   -3.9427   -1.0744 O.2     1  UNL1        0.0000
    160 O           5.1979   -3.3672   -0.0938 O.2     1  UNL1        0.0000
    161 O          -3.9630   -0.7525   -1.5771 O.2     1  UNL1        0.0000
    162 O          -3.1041   -4.9688    0.0071 O.2     1  UNL1        0.0000
    163 O          -0.5405    4.1559   -1.1753 O.2     1  UNL1        0.0000
    164 O          -4.9027    3.1702   -0.1671 O.2     1  UNL1        0.0000
    165 H          -7.2908   -2.7289    4.5398 H       1  UNL1        0.0000
    166 H          -2.2542   -5.2411    2.4847 H       1  UNL1        0.0000
    167 H          -1.4071   -5.8000    4.7626 H       1  UNL1        0.0000
    168 H           6.8947   -5.0855    4.1224 H       1  UNL1        0.0000
    169 H           5.3318   -5.7448    5.9480 H       1  UNL1        0.0000
    170 H          -4.3656   -5.7073    1.8581 H       1  UNL1        0.0000
    171 H          -5.4265   -6.5379    3.9483 H       1  UNL1        0.0000
    172 H          -6.8794   -5.0128    5.2787 H       1  UNL1        0.0000
    173 H          -6.9604    2.1154    0.9198 H       1  UNL1        0.0000
    174 H          -8.0612    1.3344    3.0262 H       1  UNL1        0.0000
    175 H           6.0865   -2.2540    1.9181 H       1  UNL1        0.0000
    176 H           6.4573   -1.6002    4.2972 H       1  UNL1        0.0000
    177 H           4.1418    6.4269    4.6049 H       1  UNL1        0.0000
    178 H           5.0998    4.8196    6.2520 H       1  UNL1        0.0000
    179 H          -6.5845    4.1486    4.2565 H       1  UNL1        0.0000
    180 H          -5.1443    5.2279    5.9806 H       1  UNL1        0.0000
@<TRIPOS>BOND
     1     1     7    1
     2     1    13    1
     3     1     9    1
     4     1    11    1
     5     1     2    1
     6     3    45    1
     7     3    12    1
     8     4    19    1
     9     4     8    1
    10     5    58    1
    11     5    14    1
    12     6    32    1
    13     6    10    1
    14     7     4    1
    15     8     2    1
    16     9     6    1
    17    10     2    1
    18    11     3    1
    19    12     2    1
    20    13     5    1
    21    14     2    1
    22    15    27   am
    23    15    20   am
    24    16    33   am
    25    16    40   am
    26    17    46   am
    27    17    53   am
    28    18    59   am
    29    18    66   am
    30    19   103    1
    31    19    15    1
    32    20    21    1
    33    21    22   ar
    34    22    87   ar
    35    22    23   ar
    36    23    88   ar
    37    24    23   ar
    38    24    89    1
    39    25    24   ar
    40    26    21   ar
    41    26    25   ar
    42    27    26    1
    43    28    29    1
    44    28    19    1
    45    29   104    1
    46    29   106    1
    47    30    28    1
    48    30   107    1
    49    31   111    1
    50    31    28    1
    51    32   113    1
    52    32    16    1
    53    33    34    1
    54    34    39   ar
    55    34    35   ar
    56    35    36   ar
    57    36    37   ar
    58    36    96   ar
    59    37    99   ar
    60    38   100   ar
    61    38    37   ar
    62    39    38   ar
    63    40   162    2
    64    40    39    1
    65    41    42    1
    66    41    32    1
    67    42   116    1
    68    42   115    1
    69    43   119    1
    70    43    41    1
    71    44   121    1
    72    44    41    1
    73    45   123    1
    74    45    17    1
    75    46    47    1
    76    47    52   ar
    77    47    48   ar
    78    48    49   ar
    79    49    50   ar
    80    49    73   ar
    81    50    71   ar
    82    51    72   ar
    83    51    50   ar
    84    52    51   ar
    85    53    52    1
    86    54    55    1
    87    54    45    1
    88    55   126    1
    89    55   125    1
    90    56    54    1
    91    56   129    1
    92    57   131    1
    93    57    54    1
    94    58   133    1
    95    58    18    1
    96    59    60    1
    97    60    65   ar
    98    60    61   ar
    99    61    62   ar
   100    62    63   ar
   101    62    80   ar
   102    63    83   ar
   103    64    84   ar
   104    64    63   ar
   105    65    64   ar
   106    66    65    1
   107    67    69    1
   108    67    58    1
   109    68   135    1
   110    68    67    1
   111    69   139    1
   112    69   138    1
   113    70    67    1
   114    70   140    1
   115    71    78   ar
   116    71   155    1
   117    72    77   ar
   118    73   153    1
   119    74    48   ar
   120    74    75   ar
   121    75    76   ar
   122    76    73   ar
   123    76   167    1
   124    77   168    1
   125    77    78   ar
   126    78   169    1
   127    79    61   ar
   128    79    81   ar
   129    80   147    1
   130    81    82   ar
   131    82    80   ar
   132    82   176    1
   133    83    86   ar
   134    83   148    1
   135    84    85   ar
   136    85   177    1
   137    85    86   ar
   138    86   178    1
   139    87    91   ar
   140    88    92   ar
   141    88   145    1
   142    89   144    1
   143    90    25    1
   144    90    93    2
   145    91   179    1
   146    91    92   ar
   147    92   180    1
   148    93    94    1
   149    94    89    2
   150    95    35   ar
   151    95    97   ar
   152    96   151    1
   153    97    98   ar
   154    98    96   ar
   155    98   174    1
   156    99   102   ar
   157    99   165    1
   158   100   101   ar
   159   101   171    1
   160   101   102   ar
   161   102   172    1
   162   105    29    1
   163   108    30    1
   164   109    30    1
   165   110    31    1
   166   112    31    1
   167   114    42    1
   168   117    43    1
   169   118    43    1
   170   120    44    1
   171   122    44    1
   172   124    55    1
   173   127    56    1
   174   128    56    1
   175   130    57    1
   176   132    57    1
   177   134    68    1
   178   136    68    1
   179   137    69    1
   180   141    70    1
   181   142    70    1
   182   143    90    1
   183   146    87    1
   184   149    84    1
   185   150    79    1
   186   152    95    1
   187   154    74    1
   188   156    72    1
   189   157    66    2
   190   158    59    2
   191   159    46    2
   192   160    53    2
   193   161    33    2
   194   163    27    2
   195   164    20    2
   196   166    75    1
   197   170   100    1
   198   173    97    1
   199   175    81    1
