@<TRIPOS>MOLECULE
RhRh_S-PTAD_21_sp
 182 205 0 0 0
SMALL
GASTEIGER

@<TRIPOS>ATOM
      1 Rh          0.2909    0.2348   -1.3946 Rh      1  UNL1        0.0000
      2 O           1.9744    1.3796   -1.0751 O.3     1  UNL1        0.0000
      3 O          -1.3593   -0.9688   -1.5794 O.3     1  UNL1        0.0000
      4 O           1.5927    1.4429    1.1473 O.3     1  UNL1        0.0000
      5 O          -1.7678   -0.8960    0.6386 O.3     1  UNL1        0.0000
      6 O           1.4164   -1.4547   -1.0714 O.3     1  UNL1        0.0000
      7 O          -0.8471    1.9334   -1.5955 O.3     1  UNL1        0.0000
      8 O          -1.2434    2.0091    0.6332 O.3     1  UNL1        0.0000
      9 O           1.0130   -1.3939    1.1479 O.3     1  UNL1        0.0000
     10 C          -1.3266    2.4645   -0.5418 C.3     1  UNL1        0.0000
     11 C           1.5284   -1.9077    0.1018 C.3     1  UNL1        0.0000
     12 C           2.3008    1.6608    0.1125 C.3     1  UNL1        0.0000
     13 C          -1.9852   -1.3258   -0.5414 C.3     1  UNL1        0.0000
     14 Rh         -0.1296    0.3058    0.9538 Rh      1  UNL1        0.0000
     15 C           2.3917   -3.1545    0.4097 C.3     1  UNL1        0.0000
     16 N           1.6555   -4.0015    1.3527 N.am    1  UNL1        0.0000
     17 C           2.1805   -4.3389    2.6171 C.2     1  UNL1        0.0000
     18 C           0.2754   -4.2652    1.2855 C.2     1  UNL1        0.0000
     19 O           3.3155   -4.1094    2.9891 O.2     1  UNL1        0.0000
     20 C           1.0658   -4.9921    3.3600 C.ar    1  UNL1        0.0000
     21 O          -0.4474   -3.9754    0.3513 O.2     1  UNL1        0.0000
     22 C          -0.0821   -4.9283    2.5675 C.ar    1  UNL1        0.0000
     23 C           1.0396   -5.5559    4.6272 C.ar    1  UNL1        0.0000
     24 C          -1.3074   -5.4069    3.0101 C.ar    1  UNL1        0.0000
     25 C          -0.1874   -6.0594    5.0809 C.ar    1  UNL1        0.0000
     26 C          -1.3407   -5.9813    4.2886 C.ar    1  UNL1        0.0000
     27 C           3.6405    2.3781    0.4335 C.3     1  UNL1        0.0000
     28 N           4.2472    1.7171    1.5916 N.am    1  UNL1        0.0000
     29 C           4.5405    2.4318    2.7765 C.2     1  UNL1        0.0000
     30 C           4.3044    0.3285    1.8028 C.2     1  UNL1        0.0000
     31 O           4.4673    3.6376    2.8939 O.2     1  UNL1        0.0000
     32 C           4.9220    1.4048    3.7849 C.ar    1  UNL1        0.0000
     33 O           4.0167   -0.5201    0.9800 O.2     1  UNL1        0.0000
     34 C           4.7636    0.1441    3.2057 C.ar    1  UNL1        0.0000
     35 C           5.3375    1.5514    5.1003 C.ar    1  UNL1        0.0000
     36 C           4.9978   -1.0240    3.9185 C.ar    1  UNL1        0.0000
     37 C           5.5919    0.3804    5.8273 C.ar    1  UNL1        0.0000
     38 C           5.4204   -0.8840    5.2479 C.ar    1  UNL1        0.0000
     39 C          -2.0502    3.8001   -0.7911 C.3     1  UNL1        0.0000
     40 N          -3.3324    3.9202   -0.0805 N.am    1  UNL1        0.0000
     41 C          -4.5028    4.0647   -0.8718 C.2     1  UNL1        0.0000
     42 C          -3.6643    3.7927    1.2957 C.2     1  UNL1        0.0000
     43 O          -4.5186    4.1646   -2.0816 O.2     1  UNL1        0.0000
     44 C          -5.6507    4.0871    0.0702 C.ar    1  UNL1        0.0000
     45 O          -2.9209    3.6220    2.2347 O.2     1  UNL1        0.0000
     46 C          -5.1513    3.9293    1.3589 C.ar    1  UNL1        0.0000
     47 C          -7.0091    4.2416   -0.1736 C.ar    1  UNL1        0.0000
     48 C          -5.9873    3.9257    2.4669 C.ar    1  UNL1        0.0000
     49 C          -7.8640    4.2385    0.9362 C.ar    1  UNL1        0.0000
     50 C          -7.3602    4.0858    2.2368 C.ar    1  UNL1        0.0000
     51 C          -3.0545   -2.4422   -0.5877 C.3     1  UNL1        0.0000
     52 N          -4.2070   -2.0348    0.2185 N.am    1  UNL1        0.0000
     53 C          -4.7968   -0.7539    0.2191 C.2     1  UNL1        0.0000
     54 C          -4.6734   -2.8192    1.2911 C.2     1  UNL1        0.0000
     55 O          -4.4893    0.1678   -0.5092 O.2     1  UNL1        0.0000
     56 C          -5.8263   -0.7860    1.2976 C.ar    1  UNL1        0.0000
     57 O          -4.2558   -3.9212    1.5930 O.2     1  UNL1        0.0000
     58 C          -5.7503   -2.0217    1.9416 C.ar    1  UNL1        0.0000
     59 C          -6.7407    0.1813    1.6878 C.ar    1  UNL1        0.0000
     60 C          -6.5845   -2.3409    3.0031 C.ar    1  UNL1        0.0000
     61 C          -7.5915   -0.1328    2.7562 C.ar    1  UNL1        0.0000
     62 C          -7.5149   -1.3728    3.4041 C.ar    1  UNL1        0.0000
     63 H          -2.5927   -3.2559   -0.0151 H       1  UNL1        0.0000
     64 H          -2.3592    3.7521   -1.8399 H       1  UNL1        0.0000
     65 H           3.3571    3.3647    0.8222 H       1  UNL1        0.0000
     66 H           3.2305   -2.7555    0.9917 H       1  UNL1        0.0000
     67 C          -3.1438   -3.1905   -4.9415 C.3     1  UNL1        0.0000
     68 H          -3.4055   -3.6128   -5.9366 H       1  UNL1        0.0000
     69 H          -2.3549   -2.4234   -5.1041 H       1  UNL1        0.0000
     70 C          -2.6115   -4.3083   -4.0196 C.3     1  UNL1        0.0000
     71 H          -1.7197   -4.7804   -4.4867 H       1  UNL1        0.0000
     72 C          -4.3890   -2.5396   -4.3021 C.3     1  UNL1        0.0000
     73 H          -4.7764   -1.7439   -4.9751 H       1  UNL1        0.0000
     74 C          -5.4806   -3.6103   -4.0946 C.3     1  UNL1        0.0000
     75 H          -5.7784   -4.0444   -5.0743 H       1  UNL1        0.0000
     76 H          -6.3881   -3.1475   -3.6480 H       1  UNL1        0.0000
     77 C          -3.7050   -5.3749   -3.8116 C.3     1  UNL1        0.0000
     78 H          -3.3227   -6.1905   -3.1590 H       1  UNL1        0.0000
     79 H          -3.9807   -5.8322   -4.7873 H       1  UNL1        0.0000
     80 C          -4.9429   -4.7200   -3.1673 C.3     1  UNL1        0.0000
     81 H          -5.7310   -5.4893   -3.0154 H       1  UNL1        0.0000
     82 C          -4.5525   -4.1066   -1.8048 C.3     1  UNL1        0.0000
     83 H          -5.4654   -3.6713   -1.3423 H       1  UNL1        0.0000
     84 H          -4.1917   -4.9125   -1.1276 H       1  UNL1        0.0000
     85 C          -2.2177   -3.7041   -2.6561 C.3     1  UNL1        0.0000
     86 H          -1.3860   -2.9926   -2.8254 H       1  UNL1        0.0000
     87 H          -1.8212   -4.5101   -1.9997 H       1  UNL1        0.0000
     88 C          -4.0098   -1.9194   -2.9388 C.3     1  UNL1        0.0000
     89 H          -3.2693   -1.1116   -3.1091 H       1  UNL1        0.0000
     90 H          -4.9153   -1.4501   -2.4996 H       1  UNL1        0.0000
     91 C          -3.4489   -3.0148   -1.9821 C.3     1  UNL1        0.0000
     92 C          -0.5799    5.2293    0.7999 C.3     1  UNL1        0.0000
     93 H          -1.4137    5.3780    1.5123 H       1  UNL1        0.0000
     94 H          -0.0074    4.3322    1.1213 H       1  UNL1        0.0000
     95 C           0.3318    6.4746    0.8830 C.3     1  UNL1        0.0000
     96 H           0.7113    6.5864    1.9220 H       1  UNL1        0.0000
     97 C          -1.1240    5.0474   -0.6485 C.3     1  UNL1        0.0000
     98 C          -1.9120    6.3355   -1.0392 C.3     1  UNL1        0.0000
     99 H          -2.7834    6.4794   -0.3630 H       1  UNL1        0.0000
    100 H          -2.3101    6.2444   -2.0743 H       1  UNL1        0.0000
    101 C          -0.4771    7.7306    0.4947 C.3     1  UNL1        0.0000
    102 H           0.1649    8.6355    0.5733 H       1  UNL1        0.0000
    103 H          -1.3290    7.8674    1.1966 H       1  UNL1        0.0000
    104 C          -1.0015    7.5798   -0.9489 C.3     1  UNL1        0.0000
    105 H          -1.5831    8.4853   -1.2278 H       1  UNL1        0.0000
    106 C           0.1898    7.4177   -1.9150 C.3     1  UNL1        0.0000
    107 H          -0.1779    7.3235   -2.9605 H       1  UNL1        0.0000
    108 H           0.8398    8.3192   -1.8718 H       1  UNL1        0.0000
    109 C           1.5234    6.3123   -0.0817 C.3     1  UNL1        0.0000
    110 H           2.1174    5.4184    0.2046 H       1  UNL1        0.0000
    111 H           2.1962    7.1948   -0.0090 H       1  UNL1        0.0000
    112 C           0.0966    4.9184   -1.6157 C.3     1  UNL1        0.0000
    113 H           0.7090    4.0271   -1.3594 H       1  UNL1        0.0000
    114 H          -0.2528    4.7897   -2.6642 H       1  UNL1        0.0000
    115 C           1.0006    6.1649   -1.5259 C.3     1  UNL1        0.0000
    116 H           1.8601    6.0507   -2.2217 H       1  UNL1        0.0000
    117 C           5.0732    1.2611   -1.4191 C.3     1  UNL1        0.0000
    118 H           4.2009    0.7105   -1.8264 H       1  UNL1        0.0000
    119 H           5.5699    0.5956   -0.6826 H       1  UNL1        0.0000
    120 C           4.6428    2.5979   -0.7396 C.3     1  UNL1        0.0000
    121 C           6.0664    1.5370   -2.5691 C.3     1  UNL1        0.0000
    122 H           6.3526    0.5755   -3.0487 H       1  UNL1        0.0000
    123 C           5.4051    2.4563   -3.6177 C.3     1  UNL1        0.0000
    124 H           4.4995    1.9650   -4.0367 H       1  UNL1        0.0000
    125 H           6.1067    2.6341   -4.4622 H       1  UNL1        0.0000
    126 C           4.0202    3.5433   -1.8163 C.3     1  UNL1        0.0000
    127 H           3.7405    4.5145   -1.3545 H       1  UNL1        0.0000
    128 H           3.0969    3.1185   -2.2563 H       1  UNL1        0.0000
    129 C           5.0216    3.7996   -2.9611 C.3     1  UNL1        0.0000
    130 H           4.5533    4.4627   -3.7209 H       1  UNL1        0.0000
    131 C           6.2836    4.4811   -2.3956 C.3     1  UNL1        0.0000
    132 H           7.0037    4.6898   -3.2172 H       1  UNL1        0.0000
    133 H           6.0152    5.4568   -1.9338 H       1  UNL1        0.0000
    134 C           5.9324    3.2950   -0.1990 C.3     1  UNL1        0.0000
    135 H           6.4316    2.6592    0.5648 H       1  UNL1        0.0000
    136 H           5.6721    4.2582    0.2937 H       1  UNL1        0.0000
    137 C           7.3281    2.2228   -2.0043 C.3     1  UNL1        0.0000
    138 H           7.8203    1.5606   -1.2583 H       1  UNL1        0.0000
    139 H           8.0609    2.4029   -2.8214 H       1  UNL1        0.0000
    140 C           6.9345    3.5608   -1.3441 C.3     1  UNL1        0.0000
    141 H           7.8435    4.0527   -0.9346 H       1  UNL1        0.0000
    142 C           3.2896   -6.4564   -2.3883 C.3     1  UNL1        0.0000
    143 H           2.5989   -7.1364   -1.8428 H       1  UNL1        0.0000
    144 H           3.7311   -7.0372   -3.2279 H       1  UNL1        0.0000
    145 C           4.4052   -5.9664   -1.4415 C.3     1  UNL1        0.0000
    146 H           4.9632   -6.8416   -1.0431 H       1  UNL1        0.0000
    147 C           2.5115   -5.2427   -2.9385 C.3     1  UNL1        0.0000
    148 H           1.7113   -5.5973   -3.6244 H       1  UNL1        0.0000
    149 C           1.8743   -4.4660   -1.7654 C.3     1  UNL1        0.0000
    150 H           1.1808   -5.1475   -1.2294 H       1  UNL1        0.0000
    151 H           1.2671   -3.6343   -2.1773 H       1  UNL1        0.0000
    152 C           3.7775   -5.1792   -0.2703 C.3     1  UNL1        0.0000
    153 H           4.5808   -4.8506    0.4262 H       1  UNL1        0.0000
    154 H           3.1105   -5.8648    0.2970 H       1  UNL1        0.0000
    155 C           2.9795   -3.9438   -0.7966 C.3     1  UNL1        0.0000
    156 C           3.9809   -3.0475   -1.5951 C.3     1  UNL1        0.0000
    157 H           3.4885   -2.1471   -2.0116 H       1  UNL1        0.0000
    158 H           4.7926   -2.6869   -0.9245 H       1  UNL1        0.0000
    159 C           5.3734   -5.0512   -2.2172 C.3     1  UNL1        0.0000
    160 H           5.8417   -5.6146   -3.0541 H       1  UNL1        0.0000
    161 H           6.1931   -4.7095   -1.5475 H       1  UNL1        0.0000
    162 C           3.4768   -4.3184   -3.7107 C.3     1  UNL1        0.0000
    163 H           3.9159   -4.8652   -4.5740 H       1  UNL1        0.0000
    164 H           2.9217   -3.4452   -4.1191 H       1  UNL1        0.0000
    165 C           4.5998   -3.8364   -2.7673 C.3     1  UNL1        0.0000
    166 H           5.2979   -3.1780   -3.3291 H       1  UNL1        0.0000
    167 H          -7.3845    4.3622   -1.1849 H       1  UNL1        0.0000
    168 H          -8.9335    4.3615    0.7901 H       1  UNL1        0.0000
    169 H          -8.0478    4.0969    3.0781 H       1  UNL1        0.0000
    170 H          -5.5833    3.8059    3.4673 H       1  UNL1        0.0000
    171 H           4.8383   -2.0010    3.4718 H       1  UNL1        0.0000
    172 H           5.6134   -1.7725    5.8421 H       1  UNL1        0.0000
    173 H           5.9195    0.4526    6.8606 H       1  UNL1        0.0000
    174 H           5.4528    2.5355    5.5437 H       1  UNL1        0.0000
    175 H          -6.5139   -3.3042    3.4986 H       1  UNL1        0.0000
    176 H          -8.1875   -1.5850    4.2304 H       1  UNL1        0.0000
    177 H          -8.3218    0.5989    3.0901 H       1  UNL1        0.0000
    178 H          -6.7921    1.1403    1.1831 H       1  UNL1        0.0000
    179 H           1.9349   -5.5978    5.2397 H       1  UNL1        0.0000
    180 H          -0.2490   -6.5102    6.0674 H       1  UNL1        0.0000
    181 H          -2.2791   -6.3680    4.6755 H       1  UNL1        0.0000
    182 H          -2.2012   -5.3153    2.3999 H       1  UNL1        0.0000
@<TRIPOS>BOND
     1     1     2    1
     2     1     6    1
     3     1    14    1
     4     2    12    1
     5     3     1    1
     6     3    13    1
     7     5    14    1
     8     6    11    1
     9     7     1    1
    10     7    10    1
    11     8    14    1
    12    10    39    1
    13    10     8    1
    14    11    15    1
    15    11     9    1
    16    12    27    1
    17    12     4    1
    18    13    51    1
    19    13     5    1
    20    14     4    1
    21    14     9    1
    22    15    66    1
    23    15    16    1
    24    16    17   am
    25    17    19    2
    26    17    20    1
    27    18    16   am
    28    18    22    1
    29    20    23   ar
    30    21    18    2
    31    22    24   ar
    32    22    20   ar
    33    23    25   ar
    34    23   179    1
    35    24    26   ar
    36    25   180    1
    37    26   181    1
    38    26    25   ar
    39    27    65    1
    40    27    28    1
    41    28    30   am
    42    28    29   am
    43    29    31    2
    44    29    32    1
    45    30    34    1
    46    32    35   ar
    47    33    30    2
    48    34    32   ar
    49    34    36   ar
    50    35   174    1
    51    35    37   ar
    52    36    38   ar
    53    37   173    1
    54    38    37   ar
    55    38   172    1
    56    39    64    1
    57    39    40    1
    58    40    42   am
    59    41    40   am
    60    41    44    1
    61    42    46    1
    62    42    45    2
    63    43    41    2
    64    44    46   ar
    65    46    48   ar
    66    47    44   ar
    67    47    49   ar
    68    48   170    1
    69    49    50   ar
    70    50    48   ar
    71    50   169    1
    72    51    63    1
    73    51    52    1
    74    52    53   am
    75    52    54   am
    76    53    56    1
    77    54    57    2
    78    54    58    1
    79    55    53    2
    80    56    59   ar
    81    56    58   ar
    82    58    60   ar
    83    59    61   ar
    84    60    62   ar
    85    60   175    1
    86    61   177    1
    87    61    62   ar
    88    62   176    1
    89    67    72    1
    90    67    70    1
    91    68    67    1
    92    69    67    1
    93    70    71    1
    94    70    77    1
    95    70    85    1
    96    72    73    1
    97    72    74    1
    98    72    88    1
    99    74    76    1
   100    74    80    1
   101    75    74    1
   102    77    80    1
   103    77    78    1
   104    79    77    1
   105    80    81    1
   106    80    82    1
   107    82    83    1
   108    82    84    1
   109    85    87    1
   110    85    91    1
   111    86    85    1
   112    88    90    1
   113    88    91    1
   114    89    88    1
   115    91    82    1
   116    91    51    1
   117    92    95    1
   118    92    94    1
   119    92    93    1
   120    95    96    1
   121    97    39    1
   122    97    92    1
   123    98   104    1
   124    98    97    1
   125    98    99    1
   126   100    98    1
   127   101   102    1
   128   101    95    1
   129   101   103    1
   130   104   105    1
   131   104   101    1
   132   106   108    1
   133   106   115    1
   134   106   104    1
   135   107   106    1
   136   109   111    1
   137   109   110    1
   138   109    95    1
   139   112   115    1
   140   112   113    1
   141   112    97    1
   142   114   112    1
   143   115   116    1
   144   115   109    1
   145   117   120    1
   146   117   119    1
   147   118   117    1
   148   120   134    1
   149   120    27    1
   150   121   122    1
   151   121   137    1
   152   121   117    1
   153   123   129    1
   154   123   121    1
   155   124   123    1
   156   125   123    1
   157   126   127    1
   158   126   120    1
   159   128   126    1
   160   129   130    1
   161   129   131    1
   162   129   126    1
   163   131   133    1
   164   131   140    1
   165   132   131    1
   166   134   136    1
   167   134   135    1
   168   137   140    1
   169   137   138    1
   170   139   137    1
   171   140   141    1
   172   140   134    1
   173   142   143    1
   174   142   145    1
   175   144   142    1
   176   145   146    1
   177   145   152    1
   178   147   148    1
   179   147   142    1
   180   147   149    1
   181   149   150    1
   182   149   155    1
   183   151   149    1
   184   152   154    1
   185   152   153    1
   186   155   152    1
   187   155    15    1
   188   156   158    1
   189   156   155    1
   190   157   156    1
   191   159   161    1
   192   159   145    1
   193   160   159    1
   194   162   147    1
   195   162   165    1
   196   163   162    1
   197   164   162    1
   198   165   166    1
   199   165   159    1
   200   165   156    1
   201   167    47    1
   202   168    49    1
   203   171    36    1
   204   178    59    1
   205   182    24    1
