@<TRIPOS>MOLECULE
RhRh_cap4_4_sp
 74 81 0 0 0
SMALL
GASTEIGER

@<TRIPOS>ATOM
      1 Rh          0.2689   -0.7711   -0.9157 Rh      1  UNL1        0.0000
      2 Rh          0.1043    0.4425    1.1489 Rh      1  UNL1        0.0000
      3 C          -1.7202    1.3782   -0.9740 C.3     1  UNL1        0.0000
      4 C          -1.7916   -1.7690    0.9502 C.3     1  UNL1        0.0000
      5 C           2.1013    1.4952   -0.7580 C.3     1  UNL1        0.0000
      6 C           2.1037   -1.6809    1.1983 C.3     1  UNL1        0.0000
      7 O           1.5699   -0.7924    1.9555 O.3     1  UNL1        0.0000
      8 O          -1.3827   -0.8786    1.7816 O.3     1  UNL1        0.0000
      9 O          -1.1574    0.5181   -1.7437 O.3     1  UNL1        0.0000
     10 O           1.7980    0.5098   -1.5253 O.3     1  UNL1        0.0000
     11 N           1.6820   -1.9436   -0.0202 N.3     1  UNL1        0.0000
     12 N          -1.2534   -1.9551   -0.2348 N.3     1  UNL1        0.0000
     13 N          -1.3488    1.5891    0.2707 N.3     1  UNL1        0.0000
     14 N           1.5640    1.6815    0.4274 N.3     1  UNL1        0.0000
     15 C           3.3201   -2.3770    1.7792 C.3     1  UNL1        0.0000
     16 C           4.6208   -1.9180    1.0903 C.3     1  UNL1        0.0000
     17 C           4.8769   -2.5822   -0.2681 C.3     1  UNL1        0.0000
     18 C           3.7836   -2.3683   -1.3223 C.3     1  UNL1        0.0000
     19 C           2.3986   -2.8726   -0.8904 C.3     1  UNL1        0.0000
     20 C          -2.9967   -2.5723    1.4056 C.3     1  UNL1        0.0000
     21 C          -4.2735   -2.2059    0.6250 C.3     1  UNL1        0.0000
     22 C          -4.3571   -2.8270   -0.7750 C.3     1  UNL1        0.0000
     23 C          -3.1982   -2.4922   -1.7225 C.3     1  UNL1        0.0000
     24 C          -1.8191   -2.9051   -1.1888 C.3     1  UNL1        0.0000
     25 C          -2.9005    2.1154   -1.5807 C.3     1  UNL1        0.0000
     26 C          -4.2431    1.6531   -0.9825 C.3     1  UNL1        0.0000
     27 C          -4.5523    2.2406    0.4003 C.3     1  UNL1        0.0000
     28 C          -3.5083    1.9656    1.4901 C.3     1  UNL1        0.0000
     29 C          -2.1029    2.4805    1.1489 C.3     1  UNL1        0.0000
     30 C           3.1005    2.4796   -1.3376 C.3     1  UNL1        0.0000
     31 C           2.4509    3.8320   -1.6902 C.3     1  UNL1        0.0000
     32 C           2.2257    4.7518   -0.4843 C.3     1  UNL1        0.0000
     33 C           1.3382    4.1726    0.6239 C.3     1  UNL1        0.0000
     34 C           1.8709    2.8640    1.2266 C.3     1  UNL1        0.0000
     35 H           3.2193   -3.4663    1.6955 H       1  UNL1        0.0000
     36 H           3.3419   -2.1256    2.8409 H       1  UNL1        0.0000
     37 H           4.5924   -0.8266    0.9786 H       1  UNL1        0.0000
     38 H           5.4650   -2.1413    1.7529 H       1  UNL1        0.0000
     39 H           5.8341   -2.2231   -0.6653 H       1  UNL1        0.0000
     40 H           4.9995   -3.6631   -0.1067 H       1  UNL1        0.0000
     41 H           3.6836   -1.3067   -1.5747 H       1  UNL1        0.0000
     42 H           4.0782   -2.8939   -2.2395 H       1  UNL1        0.0000
     43 H           1.7745   -3.0153   -1.7794 H       1  UNL1        0.0000
     44 H           2.4831   -3.8636   -0.4196 H       1  UNL1        0.0000
     45 H          -3.1265   -2.3560    2.4674 H       1  UNL1        0.0000
     46 H          -2.7980   -3.6469    1.3068 H       1  UNL1        0.0000
     47 H          -5.1434   -2.5369    1.2039 H       1  UNL1        0.0000
     48 H          -4.3447   -1.1135    0.5602 H       1  UNL1        0.0000
     49 H          -5.3024   -2.5245   -1.2420 H       1  UNL1        0.0000
     50 H          -4.4080   -3.9197   -0.6642 H       1  UNL1        0.0000
     51 H          -3.1589   -1.4187   -1.9388 H       1  UNL1        0.0000
     52 H          -3.3737   -3.0048   -2.6766 H       1  UNL1        0.0000
     53 H          -1.8646   -3.9166   -0.7578 H       1  UNL1        0.0000
     54 H          -1.1162   -2.9658   -2.0265 H       1  UNL1        0.0000
     55 H          -2.8730    1.9122   -2.6526 H       1  UNL1        0.0000
     56 H          -2.7874    3.1982   -1.4433 H       1  UNL1        0.0000
     57 H          -5.0484    1.9382   -1.6691 H       1  UNL1        0.0000
     58 H          -4.2487    0.5574   -0.9392 H       1  UNL1        0.0000
     59 H          -4.6631    3.3294    0.2946 H       1  UNL1        0.0000
     60 H          -5.5279    1.8670    0.7346 H       1  UNL1        0.0000
     61 H          -3.4230    0.8938    1.7000 H       1  UNL1        0.0000
     62 H          -3.8429    2.4477    2.4172 H       1  UNL1        0.0000
     63 H          -2.1629    3.4944    0.7247 H       1  UNL1        0.0000
     64 H          -1.5224    2.5756    2.0726 H       1  UNL1        0.0000
     65 H           3.5085    2.0107   -2.2346 H       1  UNL1        0.0000
     66 H           3.9304    2.6383   -0.6371 H       1  UNL1        0.0000
     67 H           3.0953    4.3514   -2.4086 H       1  UNL1        0.0000
     68 H           1.5008    3.6420   -2.2049 H       1  UNL1        0.0000
     69 H           1.7949    5.6982   -0.8329 H       1  UNL1        0.0000
     70 H           3.2042    5.0027   -0.0503 H       1  UNL1        0.0000
     71 H           0.3279    3.9805    0.2444 H       1  UNL1        0.0000
     72 H           1.2472    4.9179    1.4240 H       1  UNL1        0.0000
     73 H           2.9527    2.9461    1.4094 H       1  UNL1        0.0000
     74 H           1.4145    2.7061    2.2096 H       1  UNL1        0.0000
@<TRIPOS>BOND
     1     1    12    1
     2     1    11    1
     3     1     2    1
     4     2     8    1
     5     2     7    1
     6     3     9    1
     7     3    13    1
     8     4    20    1
     9     4     8    1
    10     5    10    1
    11     5    14    1
    12     6    15    1
    13     6     7    1
    14     9     1    1
    15    10     1    1
    16    11    19    1
    17    11     6    1
    18    12    24    1
    19    12     4    1
    20    13    29    1
    21    13     2    1
    22    14     2    1
    23    14    34    1
    24    15    36    1
    25    16    38    1
    26    16    15    1
    27    17    40    1
    28    17    16    1
    29    18    19    1
    30    18    17    1
    31    19    44    1
    32    20    45    1
    33    21    47    1
    34    21    20    1
    35    22    50    1
    36    22    21    1
    37    23    24    1
    38    23    22    1
    39    24    53    1
    40    25    56    1
    41    25    26    1
    42    25     3    1
    43    26    58    1
    44    26    27    1
    45    27    60    1
    46    27    28    1
    47    28    61    1
    48    28    62    1
    49    29    28    1
    50    29    64    1
    51    30     5    1
    52    30    66    1
    53    31    30    1
    54    31    32    1
    55    32    70    1
    56    32    33    1
    57    33    34    1
    58    33    72    1
    59    34    73    1
    60    34    74    1
    61    35    15    1
    62    37    16    1
    63    39    17    1
    64    41    18    1
    65    42    18    1
    66    43    19    1
    67    46    20    1
    68    48    21    1
    69    49    22    1
    70    51    23    1
    71    52    23    1
    72    54    24    1
    73    55    25    1
    74    57    26    1
    75    59    27    1
    76    63    29    1
    77    65    30    1
    78    67    31    1
    79    68    31    1
    80    69    32    1
    81    71    33    1
