@<TRIPOS>MOLECULE
RhRh_S-pBrTPCP_C4-2_19_sp
 166 185 0 0 0
SMALL
GASTEIGER

@<TRIPOS>ATOM
      1 Rh          0.0000   -0.0000    1.8973 Rh      1  UNL1        0.0000
      2 Rh          0.0001   -0.0001   -0.4929 Rh      1  UNL1        0.0000
      3 C          -2.1677   -1.5024    0.7142 C.3     1  UNL1        0.0000
      4 C          -1.6107    2.0907    0.6885 C.3     1  UNL1        0.0000
      5 C           2.1678    1.5024    0.7142 C.3     1  UNL1        0.0000
      6 C           1.6107   -2.0908    0.6886 C.3     1  UNL1        0.0000
      7 O           1.2087   -1.6756    1.8169 O.3     1  UNL1        0.0000
      8 O           1.2968   -1.5903   -0.4421 O.3     1  UNL1        0.0000
      9 O           1.6113    1.2631    1.8333 O.3     1  UNL1        0.0000
     10 O           1.6701    1.2056   -0.4230 O.3     1  UNL1        0.0000
     11 O          -1.2087    1.6755    1.8168 O.3     1  UNL1        0.0000
     12 O          -1.2967    1.5902   -0.4422 O.3     1  UNL1        0.0000
     13 O          -1.6112   -1.2631    1.8333 O.3     1  UNL1        0.0000
     14 O          -1.6700   -1.2057   -0.4230 O.3     1  UNL1        0.0000
     15 BR          7.6984   -1.2988   -2.2301 Br      1  UNL1        0.0000
     16 BR          7.2823    2.0827   -4.1439 Br      1  UNL1        0.0000
     17 BR         -7.6983    1.2986   -2.2304 Br      1  UNL1        0.0000
     18 BR         -7.2828   -2.0825   -4.1433 Br      1  UNL1        0.0000
     19 C           3.8620   -2.6934   -1.4414 C.ar    1  UNL1        0.0000
     20 C           2.5823   -3.2474    0.6586 C.3     1  UNL1        0.0000
     21 C           2.0220   -4.6859    0.5333 C.3     1  UNL1        0.0000
     22 C           6.2181   -2.3084    0.0054 C.ar    1  UNL1        0.0000
     23 C           3.8594   -2.9033   -0.0557 C.ar    1  UNL1        0.0000
     24 C           5.0152   -2.2786   -2.0990 C.ar    1  UNL1        0.0000
     25 C           2.8317   -5.6375   -0.3150 C.ar    1  UNL1        0.0000
     26 C           0.5371   -4.9256    0.4475 C.ar    1  UNL1        0.0000
     27 C          -0.0363   -5.8885    1.2874 C.ar    1  UNL1        0.0000
     28 C           2.5934   -4.1814    1.8347 C.3     1  UNL1        0.0000
     29 C           3.9128   -6.3593    0.1989 C.ar    1  UNL1        0.0000
     30 C           5.0562   -2.7408    0.6466 C.ar    1  UNL1        0.0000
     31 C           2.5088   -5.7965   -1.6700 C.ar    1  UNL1        0.0000
     32 C           6.1763   -2.0509   -1.3605 C.ar    1  UNL1        0.0000
     33 C           4.3448   -7.3396   -1.9689 C.ar    1  UNL1        0.0000
     34 C          -1.3741   -6.2501    1.1449 C.ar    1  UNL1        0.0000
     35 C          -1.6048   -4.6690   -0.6648 C.ar    1  UNL1        0.0000
     36 C          -0.2638   -4.3111   -0.5224 C.ar    1  UNL1        0.0000
     37 C           3.2591   -6.6339   -2.4904 C.ar    1  UNL1        0.0000
     38 C           4.6645   -7.2031   -0.6199 C.ar    1  UNL1        0.0000
     39 C          -2.1575   -5.6488    0.1580 C.ar    1  UNL1        0.0000
     40 C           5.0377    3.3806   -0.8790 C.ar    1  UNL1        0.0000
     41 C           3.5042    2.1809    0.7465 C.3     1  UNL1        0.0000
     42 C           4.3905    1.9695    2.0380 C.3     1  UNL1        0.0000
     43 C           5.1798    1.1114   -2.4778 C.ar    1  UNL1        0.0000
     44 C           4.2527    2.2710   -0.5505 C.ar    1  UNL1        0.0000
     45 C           5.9205    3.3551   -1.9589 C.ar    1  UNL1        0.0000
     46 C           5.8835    1.9945    1.8128 C.ar    1  UNL1        0.0000
     47 C           3.9762    1.0202    3.1275 C.ar    1  UNL1        0.0000
     48 C           3.6307    1.5019    4.3924 C.ar    1  UNL1        0.0000
     49 C           3.6445    3.2409    1.8309 C.3     1  UNL1        0.0000
     50 C           6.5146    1.0249    1.0252 C.ar    1  UNL1        0.0000
     51 C           4.3237    1.1439   -1.3848 C.ar    1  UNL1        0.0000
     52 C           6.6621    2.9956    2.3994 C.ar    1  UNL1        0.0000
     53 C           5.9987    2.2062   -2.7362 C.ar    1  UNL1        0.0000
     54 C           8.6546    2.0870    1.3754 C.ar    1  UNL1        0.0000
     55 C           3.2857    0.6198    5.4160 C.ar    1  UNL1        0.0000
     56 C           3.6425   -1.2426    3.9256 C.ar    1  UNL1        0.0000
     57 C           3.9896   -0.3586    2.9089 C.ar    1  UNL1        0.0000
     58 C           8.0414    3.0383    2.1900 C.ar    1  UNL1        0.0000
     59 C           7.8853    1.0791    0.7905 C.ar    1  UNL1        0.0000
     60 C           3.2872   -0.7568    5.1849 C.ar    1  UNL1        0.0000
     61 C          -5.0562    2.7407    0.6464 C.ar    1  UNL1        0.0000
     62 C          -2.5823    3.2473    0.6585 C.3     1  UNL1        0.0000
     63 C          -2.0221    4.6858    0.5334 C.3     1  UNL1        0.0000
     64 C          -5.0150    2.2783   -2.0992 C.ar    1  UNL1        0.0000
     65 C          -3.8594    2.9032   -0.0559 C.ar    1  UNL1        0.0000
     66 C          -6.2181    2.3083    0.0051 C.ar    1  UNL1        0.0000
     67 C          -2.8317    5.6375   -0.3148 C.ar    1  UNL1        0.0000
     68 C          -0.5371    4.9254    0.4476 C.ar    1  UNL1        0.0000
     69 C           0.0362    5.8883    1.2875 C.ar    1  UNL1        0.0000
     70 C          -2.5936    4.1811    1.8347 C.3     1  UNL1        0.0000
     71 C          -2.5092    5.7962   -1.6700 C.ar    1  UNL1        0.0000
     72 C          -3.8620    2.6932   -1.4416 C.ar    1  UNL1        0.0000
     73 C          -3.9122    6.3598    0.1994 C.ar    1  UNL1        0.0000
     74 C          -6.1763    2.0507   -1.3608 C.ar    1  UNL1        0.0000
     75 C          -4.3446    7.3401   -1.9684 C.ar    1  UNL1        0.0000
     76 C           1.3740    6.2500    1.1450 C.ar    1  UNL1        0.0000
     77 C           1.6047    4.6690   -0.6648 C.ar    1  UNL1        0.0000
     78 C           0.2638    4.3110   -0.5224 C.ar    1  UNL1        0.0000
     79 C          -4.6638    7.2039   -0.6192 C.ar    1  UNL1        0.0000
     80 C          -3.2595    6.6338   -2.4902 C.ar    1  UNL1        0.0000
     81 C           2.1574    5.6487    0.1580 C.ar    1  UNL1        0.0000
     82 C          -5.0379   -3.3806   -0.8788 C.ar    1  UNL1        0.0000
     83 C          -3.5041   -2.1809    0.7465 C.3     1  UNL1        0.0000
     84 C          -4.3905   -1.9695    2.0381 C.3     1  UNL1        0.0000
     85 C          -5.1798   -1.1114   -2.4777 C.ar    1  UNL1        0.0000
     86 C          -4.2527   -2.2710   -0.5504 C.ar    1  UNL1        0.0000
     87 C          -5.9208   -3.3549   -1.9586 C.ar    1  UNL1        0.0000
     88 C          -5.8835   -1.9944    1.8128 C.ar    1  UNL1        0.0000
     89 C          -3.9761   -1.0202    3.1275 C.ar    1  UNL1        0.0000
     90 C          -3.9895    0.3586    2.9090 C.ar    1  UNL1        0.0000
     91 C          -3.6444   -3.2409    1.8309 C.3     1  UNL1        0.0000
     92 C          -6.5144   -1.0247    1.0252 C.ar    1  UNL1        0.0000
     93 C          -4.3236   -1.1440   -1.3849 C.ar    1  UNL1        0.0000
     94 C          -6.6621   -2.9954    2.3994 C.ar    1  UNL1        0.0000
     95 C          -5.9990   -2.2060   -2.7359 C.ar    1  UNL1        0.0000
     96 C          -8.6545   -2.0867    1.3754 C.ar    1  UNL1        0.0000
     97 C          -3.6424    1.2425    3.9257 C.ar    1  UNL1        0.0000
     98 C          -3.2855   -0.6199    5.4160 C.ar    1  UNL1        0.0000
     99 C          -3.6305   -1.5019    4.3924 C.ar    1  UNL1        0.0000
    100 C          -8.0414   -3.0381    2.1899 C.ar    1  UNL1        0.0000
    101 C          -7.8851   -1.0788    0.7905 C.ar    1  UNL1        0.0000
    102 C          -3.2870    0.7567    5.1850 C.ar    1  UNL1        0.0000
    103 H           2.9476   -2.8378   -2.0021 H       1  UNL1        0.0000
    104 H           7.1285   -2.1424    0.5684 H       1  UNL1        0.0000
    105 H           5.0098   -2.1149   -3.1701 H       1  UNL1        0.0000
    106 H           0.5817   -6.3676    2.0411 H       1  UNL1        0.0000
    107 H           3.5519   -4.5558    2.1732 H       1  UNL1        0.0000
    108 H           1.8868   -3.9605    2.6257 H       1  UNL1        0.0000
    109 H           4.1723   -6.2735    1.2479 H       1  UNL1        0.0000
    110 H           1.6581   -5.2639   -2.0807 H       1  UNL1        0.0000
    111 H           4.9312   -7.9928   -2.6075 H       1  UNL1        0.0000
    112 H          -1.8017   -7.0065    1.7961 H       1  UNL1        0.0000
    113 H          -2.2169   -4.1738   -1.4105 H       1  UNL1        0.0000
    114 H           0.1564   -3.5444   -1.1609 H       1  UNL1        0.0000
    115 H           2.9945   -6.7371   -3.5384 H       1  UNL1        0.0000
    116 H           5.4994   -7.7546   -0.1984 H       1  UNL1        0.0000
    117 H          -3.1962   -5.9389    0.0345 H       1  UNL1        0.0000
    118 H           5.0122    4.2684   -0.2592 H       1  UNL1        0.0000
    119 H           5.2411    0.2313   -3.1014 H       1  UNL1        0.0000
    120 H           6.5545    4.2070   -2.1734 H       1  UNL1        0.0000
    121 H           3.6224    2.5726    4.5718 H       1  UNL1        0.0000
    122 H           4.2013    4.1364    1.5883 H       1  UNL1        0.0000
    123 H           2.7495    3.4110    2.4168 H       1  UNL1        0.0000
    124 H           5.9257    0.2531    0.5484 H       1  UNL1        0.0000
    125 H           6.1835    3.7479    3.0197 H       1  UNL1        0.0000
    126 H           9.7233    2.1346    1.1899 H       1  UNL1        0.0000
    127 H           3.0164    1.0073    6.3941 H       1  UNL1        0.0000
    128 H           3.6300   -2.3097    3.7307 H       1  UNL1        0.0000
    129 H           4.2452   -0.7347    1.9264 H       1  UNL1        0.0000
    130 H           8.6327    3.8229    2.6527 H       1  UNL1        0.0000
    131 H           8.3362    0.3559    0.1191 H       1  UNL1        0.0000
    132 H           3.0148   -1.4444    5.9797 H       1  UNL1        0.0000
    133 H          -5.0832    2.9194    1.7155 H       1  UNL1        0.0000
    134 H          -5.0096    2.1145   -3.1703 H       1  UNL1        0.0000
    135 H          -7.1285    2.1423    0.5681 H       1  UNL1        0.0000
    136 H          -0.5817    6.3674    2.0413 H       1  UNL1        0.0000
    137 H          -3.5521    4.5556    2.1730 H       1  UNL1        0.0000
    138 H          -1.8871    3.9602    2.6258 H       1  UNL1        0.0000
    139 H          -1.6590    5.2631   -2.0809 H       1  UNL1        0.0000
    140 H          -4.1714    6.2743    1.2486 H       1  UNL1        0.0000
    141 H          -4.9310    7.9935   -2.6067 H       1  UNL1        0.0000
    142 H           1.8016    7.0064    1.7962 H       1  UNL1        0.0000
    143 H           2.2168    4.1738   -1.4105 H       1  UNL1        0.0000
    144 H          -0.1564    3.5443   -1.1609 H       1  UNL1        0.0000
    145 H          -5.4983    7.7558   -0.1975 H       1  UNL1        0.0000
    146 H          -2.9952    6.7368   -3.5383 H       1  UNL1        0.0000
    147 H           3.1961    5.9389    0.0345 H       1  UNL1        0.0000
    148 H          -5.0125   -4.2683   -0.2589 H       1  UNL1        0.0000
    149 H          -5.2410   -0.2314   -3.1014 H       1  UNL1        0.0000
    150 H          -6.5550   -4.2068   -2.1729 H       1  UNL1        0.0000
    151 H          -4.2451    0.7347    1.9265 H       1  UNL1        0.0000
    152 H          -4.2013   -4.1364    1.5883 H       1  UNL1        0.0000
    153 H          -2.7495   -3.4111    2.4167 H       1  UNL1        0.0000
    154 H          -5.9254   -0.2530    0.5484 H       1  UNL1        0.0000
    155 H          -6.1836   -3.7477    3.0198 H       1  UNL1        0.0000
    156 H          -9.7232   -2.1341    1.1899 H       1  UNL1        0.0000
    157 H          -3.6298    2.3097    3.7308 H       1  UNL1        0.0000
    158 H          -3.0162   -1.0074    6.3941 H       1  UNL1        0.0000
    159 H          -3.6223   -2.5726    4.5718 H       1  UNL1        0.0000
    160 H          -8.6328   -3.8226    2.6527 H       1  UNL1        0.0000
    161 H          -8.3359   -0.3556    0.1191 H       1  UNL1        0.0000
    162 H          -3.0145    1.4443    5.9798 H       1  UNL1        0.0000
    163 H          -3.7311   -0.2663   -1.1619 H       1  UNL1        0.0000
    164 H           5.0831   -2.9195    1.7157 H       1  UNL1        0.0000
    165 H          -2.9475    2.8374   -2.0022 H       1  UNL1        0.0000
    166 H           3.7315    0.2661   -1.1617 H       1  UNL1        0.0000
@<TRIPOS>BOND
     1     2    12    1
     2     2     8    1
     3     2    14    1
     4     2    10    1
     5     2     1    1
     6     3    14    1
     7     3    83    1
     8     3    13    1
     9     4    12    1
    10     4    11    1
    11     5    10    1
    12     5    41    1
    13     5     9    1
    14     6     8    1
    15     6     7    1
    16     7     1    1
    17     9     1    1
    18    11     1    1
    19    13     1    1
    20    15    32    1
    21    16    53    1
    22    17    74    1
    23    18    95    1
    24    19    23   ar
    25    20    23    1
    26    20     6    1
    27    20    28    1
    28    21    20    1
    29    21    28    1
    30    22   104    1
    31    22    30   ar
    32    23    30   ar
    33    24    19   ar
    34    24    32   ar
    35    25    29   ar
    36    25    21    1
    37    26    21    1
    38    26    27   ar
    39    27   106    1
    40    28   107    1
    41    28   108    1
    42    29   109    1
    43    30   164    1
    44    31    25   ar
    45    32    22   ar
    46    33    38   ar
    47    34    27   ar
    48    34   112    1
    49    35    36   ar
    50    35    39   ar
    51    36    26   ar
    52    37    33   ar
    53    37    31   ar
    54    38   116    1
    55    38    29   ar
    56    39    34   ar
    57    40    44   ar
    58    40   118    1
    59    41    44    1
    60    41    49    1
    61    41    42    1
    62    42    47    1
    63    43    51   ar
    64    45    40   ar
    65    46    42    1
    66    46    52   ar
    67    47    48   ar
    68    48   121    1
    69    48    55   ar
    70    49    42    1
    71    49   123    1
    72    50    46   ar
    73    51   166    1
    74    51    44   ar
    75    52   125    1
    76    53    43   ar
    77    53    45   ar
    78    54    58   ar
    79    55   127    1
    80    56    60   ar
    81    57    47   ar
    82    57    56   ar
    83    58    52   ar
    84    58   130    1
    85    59    50   ar
    86    59    54   ar
    87    60    55   ar
    88    60   132    1
    89    61   133    1
    90    62    65    1
    91    62     4    1
    92    62    70    1
    93    63    62    1
    94    63    70    1
    95    64    72   ar
    96    64    74   ar
    97    65    61   ar
    98    66   135    1
    99    66    61   ar
   100    67    73   ar
   101    67    63    1
   102    68    63    1
   103    68    69   ar
   104    69   136    1
   105    70   137    1
   106    70   138    1
   107    71    67   ar
   108    72    65   ar
   109    73   140    1
   110    74    66   ar
   111    75    79   ar
   112    76    69   ar
   113    76   142    1
   114    77    78   ar
   115    77    81   ar
   116    78    68   ar
   117    79   145    1
   118    79    73   ar
   119    80    75   ar
   120    80    71   ar
   121    81    76   ar
   122    82    86   ar
   123    82   148    1
   124    83    86    1
   125    83    91    1
   126    83    84    1
   127    84    89    1
   128    85    93   ar
   129    87    82   ar
   130    88    84    1
   131    88    94   ar
   132    89    99   ar
   133    90    89   ar
   134    90    97   ar
   135    91    84    1
   136    91   153    1
   137    92    88   ar
   138    93   163    1
   139    93    86   ar
   140    94   155    1
   141    95    85   ar
   142    95    87   ar
   143    96   100   ar
   144    97   102   ar
   145    98   158    1
   146    99   159    1
   147    99    98   ar
   148   100    94   ar
   149   100   160    1
   150   101    92   ar
   151   101    96   ar
   152   102    98   ar
   153   102   162    1
   154   103    19    1
   155   105    24    1
   156   110    31    1
   157   111    33    1
   158   113    35    1
   159   114    36    1
   160   115    37    1
   161   117    39    1
   162   119    43    1
   163   120    45    1
   164   122    49    1
   165   124    50    1
   166   126    54    1
   167   128    56    1
   168   129    57    1
   169   131    59    1
   170   134    64    1
   171   139    71    1
   172   141    75    1
   173   143    77    1
   174   144    78    1
   175   146    80    1
   176   147    81    1
   177   149    85    1
   178   150    87    1
   179   151    90    1
   180   152    91    1
   181   154    92    1
   182   156    96    1
   183   157    97    1
   184   161   101    1
   185   165    72    1
