@<TRIPOS>MOLECULE
RhRh_S-PTTL4_2_sp
 134 145 0 0 0
SMALL
GASTEIGER

@<TRIPOS>ATOM
      1 Rh         -0.2460   -0.3815    0.2539 Rh      1  UNL1        0.0000
      2 Rh         -0.5792   -0.9415   -2.0473 Rh      1  UNL1        0.0000
      3 C           1.6182   -2.3211   -0.7976 C.3     1  UNL1        0.0000
      4 C          -2.1787   -2.4782   -0.1995 C.3     1  UNL1        0.0000
      5 C          -2.3658    1.0804   -1.0383 C.3     1  UNL1        0.0000
      6 C           1.2757    1.2244   -1.5770 C.3     1  UNL1        0.0000
      7 O          -1.5743   -1.8687    0.7379 O.3     1  UNL1        0.0000
      8 O          -1.9052   -2.4027   -1.4345 O.3     1  UNL1        0.0000
      9 O           1.3451   -1.6854    0.2611 O.3     1  UNL1        0.0000
     10 O           1.0017   -2.2386   -1.9097 O.3     1  UNL1        0.0000
     11 O           1.0065    1.1125   -0.3407 O.3     1  UNL1        0.0000
     12 O           0.7543    0.5515   -2.5162 O.3     1  UNL1        0.0000
     13 O          -1.8095    0.9254    0.0967 O.3     1  UNL1        0.0000
     14 O          -2.1178    0.4195   -2.0876 O.3     1  UNL1        0.0000
     15 N          -4.1280   -2.5722    1.2050 N.am    1  UNL1        0.0000
     16 N           3.7679   -2.9354    0.2138 N.am    1  UNL1        0.0000
     17 N           3.1728    2.4852   -0.7733 N.am    1  UNL1        0.0000
     18 N          -2.8615    3.3302   -0.3662 N.am    1  UNL1        0.0000
     19 C          -4.4836   -1.2341    0.9780 C.2     1  UNL1        0.0000
     20 C          -4.9523   -0.7011    2.2834 C.ar    1  UNL1        0.0000
     21 C          -5.3937    0.5698    2.6207 C.ar    1  UNL1        0.0000
     22 C          -5.7462    0.7853    3.9595 C.ar    1  UNL1        0.0000
     23 C          -5.6559   -0.2392    4.9095 C.ar    1  UNL1        0.0000
     24 C          -5.1963   -1.5151    4.5578 C.ar    1  UNL1        0.0000
     25 C          -4.8461   -1.7205    3.2330 C.ar    1  UNL1        0.0000
     26 C          -4.2714   -2.9216    2.5654 C.2     1  UNL1        0.0000
     27 C           4.9916   -2.3931   -0.2412 C.2     1  UNL1        0.0000
     28 C           5.7440   -1.9977    0.9802 C.ar    1  UNL1        0.0000
     29 C           7.0081   -1.4449    1.1152 C.ar    1  UNL1        0.0000
     30 C           7.4669   -1.1989    2.4156 C.ar    1  UNL1        0.0000
     31 C           6.6758   -1.5046    3.5312 C.ar    1  UNL1        0.0000
     32 C           5.3999   -2.0641    3.3809 C.ar    1  UNL1        0.0000
     33 C           4.9556   -2.2995    2.0885 C.ar    1  UNL1        0.0000
     34 C           3.6746   -2.9060    1.6149 C.2     1  UNL1        0.0000
     35 C           3.7726    1.4388   -0.0460 C.2     1  UNL1        0.0000
     36 C           4.3382    2.0707    1.1780 C.ar    1  UNL1        0.0000
     37 C           5.0354    1.5043    2.2321 C.ar    1  UNL1        0.0000
     38 C           5.4399    2.3575    3.2663 C.ar    1  UNL1        0.0000
     39 C           5.1475    3.7263    3.2330 C.ar    1  UNL1        0.0000
     40 C           4.4357    4.2869    2.1643 C.ar    1  UNL1        0.0000
     41 C           4.0406    3.4339    1.1461 C.ar    1  UNL1        0.0000
     42 C           3.2570    3.7059   -0.0896 C.2     1  UNL1        0.0000
     43 C          -1.5475    3.7948   -0.5629 C.2     1  UNL1        0.0000
     44 C          -1.2878    4.7637    0.5350 C.ar    1  UNL1        0.0000
     45 C          -0.1605    5.5251    0.8024 C.ar    1  UNL1        0.0000
     46 C          -0.2018    6.3411    1.9411 C.ar    1  UNL1        0.0000
     47 C          -1.3304    6.3803    2.7685 C.ar    1  UNL1        0.0000
     48 C          -2.4599    5.5993    2.4898 C.ar    1  UNL1        0.0000
     49 C          -2.4135    4.7957    1.3621 C.ar    1  UNL1        0.0000
     50 C          -3.4149    3.8343    0.8219 C.2     1  UNL1        0.0000
     51 C          -3.3249   -3.3809    0.2864 C.3     1  UNL1        0.0000
     52 C          -4.1436   -4.1698   -0.7702 C.3     1  UNL1        0.0000
     53 C          -4.8373   -3.2632   -1.7995 C.3     1  UNL1        0.0000
     54 C          -3.1915   -5.1512   -1.4808 C.3     1  UNL1        0.0000
     55 C          -5.2107   -4.9818   -0.0121 C.3     1  UNL1        0.0000
     56 C           2.7598   -3.3274   -0.7620 C.3     1  UNL1        0.0000
     57 C           2.2210   -4.8061   -0.6689 C.3     1  UNL1        0.0000
     58 C           0.9574   -4.9141    0.2044 C.3     1  UNL1        0.0000
     59 C           3.3302   -5.7106   -0.1102 C.3     1  UNL1        0.0000
     60 C           1.8766   -5.2596   -2.1003 C.3     1  UNL1        0.0000
     61 C           2.2941    2.3119   -1.9277 C.3     1  UNL1        0.0000
     62 C           3.0415    2.1885   -3.2910 C.3     1  UNL1        0.0000
     63 C           2.0388    2.4819   -4.4243 C.3     1  UNL1        0.0000
     64 C           4.1354    3.2723   -3.3228 C.3     1  UNL1        0.0000
     65 C           3.6841    0.8071   -3.5012 C.3     1  UNL1        0.0000
     66 C          -3.4359    2.1758   -1.0572 C.3     1  UNL1        0.0000
     67 C          -4.1370    2.5118   -2.4011 C.3     1  UNL1        0.0000
     68 C          -4.9176    1.2669   -2.8661 C.3     1  UNL1        0.0000
     69 C          -5.1435    3.6439   -2.1207 C.3     1  UNL1        0.0000
     70 C          -3.1601    2.9653   -3.4974 C.3     1  UNL1        0.0000
     71 H          -5.9365   -0.0368    5.9383 H       1  UNL1        0.0000
     72 H          -5.1047   -2.3120    5.2877 H       1  UNL1        0.0000
     73 H           7.0606   -1.3062    4.5267 H       1  UNL1        0.0000
     74 H           4.7766   -2.3088    4.2340 H       1  UNL1        0.0000
     75 H           5.9874    1.9479    4.1092 H       1  UNL1        0.0000
     76 H           5.4741    4.3608    4.0507 H       1  UNL1        0.0000
     77 H           4.1960    5.3441    2.1290 H       1  UNL1        0.0000
     78 H          -1.3272    7.0229    3.6433 H       1  UNL1        0.0000
     79 H          -3.3365    5.6133    3.1283 H       1  UNL1        0.0000
     80 H          -2.8494   -4.1220    0.9399 H       1  UNL1        0.0000
     81 H          -5.3921   -3.8844   -2.5107 H       1  UNL1        0.0000
     82 H          -4.1164   -2.6597   -2.3512 H       1  UNL1        0.0000
     83 H          -5.5461   -2.5847   -1.3200 H       1  UNL1        0.0000
     84 H          -2.6856   -5.8029   -0.7589 H       1  UNL1        0.0000
     85 H          -2.4329   -4.6246   -2.0614 H       1  UNL1        0.0000
     86 H          -3.7622   -5.7910   -2.1609 H       1  UNL1        0.0000
     87 H          -4.7631   -5.6135    0.7614 H       1  UNL1        0.0000
     88 H          -5.7511   -5.6256   -0.7125 H       1  UNL1        0.0000
     89 H          -5.9405   -4.3258    0.4708 H       1  UNL1        0.0000
     90 H           3.2820   -3.2325   -1.7166 H       1  UNL1        0.0000
     91 H           1.1259   -4.5117    1.2032 H       1  UNL1        0.0000
     92 H           0.6632   -5.9653    0.2890 H       1  UNL1        0.0000
     93 H           0.1210   -4.3778   -0.2552 H       1  UNL1        0.0000
     94 H           3.5197   -5.5097    0.9463 H       1  UNL1        0.0000
     95 H           4.2659   -5.5843   -0.6649 H       1  UNL1        0.0000
     96 H           3.0243   -6.7575   -0.2015 H       1  UNL1        0.0000
     97 H           1.1387   -4.5965   -2.5572 H       1  UNL1        0.0000
     98 H           1.4630   -6.2729   -2.0791 H       1  UNL1        0.0000
     99 H           2.7681   -5.2702   -2.7368 H       1  UNL1        0.0000
    100 H           1.7039    3.2359   -1.9589 H       1  UNL1        0.0000
    101 H           1.5812    3.4694   -4.2983 H       1  UNL1        0.0000
    102 H           1.2435    1.7373   -4.4569 H       1  UNL1        0.0000
    103 H           2.5615    2.4745   -5.3861 H       1  UNL1        0.0000
    104 H           3.7239    4.2641   -3.1100 H       1  UNL1        0.0000
    105 H           4.5961    3.2986   -4.3148 H       1  UNL1        0.0000
    106 H           4.9252    3.0684   -2.5943 H       1  UNL1        0.0000
    107 H           4.1981    0.7919   -4.4681 H       1  UNL1        0.0000
    108 H           2.9329    0.0154   -3.5029 H       1  UNL1        0.0000
    109 H           4.4139    0.5713   -2.7248 H       1  UNL1        0.0000
    110 H          -4.2083    1.8025   -0.3790 H       1  UNL1        0.0000
    111 H          -4.2473    0.4423   -3.1091 H       1  UNL1        0.0000
    112 H          -5.5023    1.5151   -3.7576 H       1  UNL1        0.0000
    113 H          -5.6080    0.9212   -2.0904 H       1  UNL1        0.0000
    114 H          -4.6355    4.5708   -1.8387 H       1  UNL1        0.0000
    115 H          -5.8326    3.3777   -1.3130 H       1  UNL1        0.0000
    116 H          -5.7320    3.8459   -3.0208 H       1  UNL1        0.0000
    117 H          -2.4226    2.1927   -3.7172 H       1  UNL1        0.0000
    118 H          -2.6233    3.8714   -3.2078 H       1  UNL1        0.0000
    119 H          -3.7210    3.1834   -4.4125 H       1  UNL1        0.0000
    120 O           2.7705   -3.3324    2.3031 O.2     1  UNL1        0.0000
    121 O           5.3357   -2.3192   -1.4015 O.2     1  UNL1        0.0000
    122 O           2.7646    4.7558   -0.4612 O.2     1  UNL1        0.0000
    123 O           3.8014    0.2707   -0.3760 O.2     1  UNL1        0.0000
    124 O          -0.8042    3.4332   -1.4545 O.2     1  UNL1        0.0000
    125 O          -4.4909    3.5105    1.2892 O.2     1  UNL1        0.0000
    126 O          -4.3967   -0.6606   -0.0922 O.2     1  UNL1        0.0000
    127 O          -3.9560   -3.9906    3.0443 O.2     1  UNL1        0.0000
    128 H          -6.0880    1.7687    4.2655 H       1  UNL1        0.0000
    129 H          -5.4367    1.3716    1.8919 H       1  UNL1        0.0000
    130 H           5.2492    0.4452    2.2550 H       1  UNL1        0.0000
    131 H           7.6092   -1.2144    0.2425 H       1  UNL1        0.0000
    132 H           8.4504   -0.7646    2.5640 H       1  UNL1        0.0000
    133 H           0.7168    5.4757    0.1667 H       1  UNL1        0.0000
    134 H           0.6605    6.9522    2.1883 H       1  UNL1        0.0000
@<TRIPOS>BOND
     1     1     9    1
     2     1     7    1
     3     2    10    1
     4     2     8    1
     5     2     1    1
     6     3    56    1
     7     3     9    1
     8     4    51    1
     9     4     7    1
    10     5    66    1
    11     5    13    1
    12     6    61    1
    13     6    11    1
    14     8     4    1
    15    10     3    1
    16    11     1    1
    17    12     2    1
    18    12     6    1
    19    13     1    1
    20    14     2    1
    21    14     5    1
    22    15    26   am
    23    16    34   am
    24    17    42   am
    25    17    35   am
    26    18    50   am
    27    19    15   am
    28    19    20    1
    29    20    21   ar
    30    20    25   ar
    31    21    22   ar
    32    22   128    1
    33    22    23   ar
    34    23    71    1
    35    24    23   ar
    36    24    72    1
    37    25    24   ar
    38    26   127    2
    39    26    25    1
    40    27    16   am
    41    27    28    1
    42    28    29   ar
    43    28    33   ar
    44    29    30   ar
    45    30   132    1
    46    30    31   ar
    47    31    73    1
    48    32    31   ar
    49    32    74    1
    50    33    32   ar
    51    34    33    1
    52    34   120    2
    53    35    36    1
    54    36    37   ar
    55    37   130    1
    56    37    38   ar
    57    38    75    1
    58    39    38   ar
    59    39    76    1
    60    40    39   ar
    61    41    36   ar
    62    41    40   ar
    63    42    41    1
    64    43    18   am
    65    43    44    1
    66    44    45   ar
    67    44    49   ar
    68    45    46   ar
    69    46   134    1
    70    46    47   ar
    71    47    78    1
    72    48    47   ar
    73    48    79    1
    74    49    48   ar
    75    50   125    2
    76    50    49    1
    77    51    80    1
    78    51    15    1
    79    52    55    1
    80    52    51    1
    81    53    83    1
    82    53    52    1
    83    54    52    1
    84    54    84    1
    85    55    89    1
    86    55    87    1
    87    56    90    1
    88    56    57    1
    89    56    16    1
    90    57    59    1
    91    57    58    1
    92    58    92    1
    93    58    91    1
    94    59    94    1
    95    60    98    1
    96    60    57    1
    97    61   100    1
    98    61    17    1
    99    62    61    1
   100    63   101    1
   101    63    62    1
   102    64    62    1
   103    64   104    1
   104    64   106    1
   105    65    62    1
   106    65   109    1
   107    66   110    1
   108    66    18    1
   109    67    69    1
   110    67    66    1
   111    68    67    1
   112    68   113    1
   113    69   114    1
   114    69   115    1
   115    70   118    1
   116    70    67    1
   117    77    40    1
   118    81    53    1
   119    82    53    1
   120    85    54    1
   121    86    54    1
   122    88    55    1
   123    93    58    1
   124    95    59    1
   125    96    59    1
   126    97    60    1
   127    99    60    1
   128   102    63    1
   129   103    63    1
   130   105    64    1
   131   107    65    1
   132   108    65    1
   133   111    68    1
   134   112    68    1
   135   116    69    1
   136   117    70    1
   137   119    70    1
   138   121    27    2
   139   122    42    2
   140   123    35    2
   141   124    43    2
   142   126    19    2
   143   129    21    1
   144   131    29    1
   145   133    45    1
