@<TRIPOS>MOLECULE
RhRh_PhPhtol-O2C4_6_sp
 162 177 0 0 0
SMALL
GASTEIGER

@<TRIPOS>ATOM
      1 Rh          0.0541    0.0705   -1.1996 Rh      1  UNL1        0.0000
      2 Rh         -0.0177    0.1212    1.1740 Rh      1  UNL1        0.0000
      3 C          -1.6018    2.1665   -0.0793 C.3     1  UNL1        0.0000
      4 C           2.1629    1.6073    0.0265 C.3     1  UNL1        0.0000
      5 C           1.5867   -2.0175    0.0375 C.3     1  UNL1        0.0000
      6 C          -2.1205   -1.4684   -0.0336 C.3     1  UNL1        0.0000
      7 O           1.5926    1.4289   -1.0934 O.3     1  UNL1        0.0000
      8 O           1.7479    1.1494    1.1384 O.3     1  UNL1        0.0000
      9 O           1.4377   -1.4256   -1.0765 O.3     1  UNL1        0.0000
     10 O           1.0566   -1.6418    1.1280 O.3     1  UNL1        0.0000
     11 O          -1.4402   -1.3613   -1.1064 O.3     1  UNL1        0.0000
     12 O          -1.8209   -0.8879    1.0537 O.3     1  UNL1        0.0000
     13 O          -1.3559    1.5690   -1.1748 O.3     1  UNL1        0.0000
     14 O          -1.0535    1.8889    1.0318 O.3     1  UNL1        0.0000
     15 C           3.4472    2.4844    0.0741 C.3     1  UNL1        0.0000
     16 C           4.1557    2.3537   -1.2932 C.ar    1  UNL1        0.0000
     17 C           5.3912    1.7256   -1.4537 C.ar    1  UNL1        0.0000
     18 C           6.0044    1.6645   -2.7074 C.ar    1  UNL1        0.0000
     19 C           5.3887    2.2247   -3.8227 C.ar    1  UNL1        0.0000
     20 C           4.1500    2.8544   -3.6731 C.ar    1  UNL1        0.0000
     21 C           3.5442    2.9195   -2.4228 C.ar    1  UNL1        0.0000
     22 C           2.9979    3.9528    0.2992 C.ar    1  UNL1        0.0000
     23 C           1.7139    4.2191    0.7929 C.ar    1  UNL1        0.0000
     24 C           1.2633    5.5190    1.0160 C.ar    1  UNL1        0.0000
     25 C           2.1091    6.5900    0.7534 C.ar    1  UNL1        0.0000
     26 C           3.3998    6.3386    0.2961 C.ar    1  UNL1        0.0000
     27 C           3.8755    5.0407    0.0674 C.ar    1  UNL1        0.0000
     28 C           4.2883    1.9663    1.2579 C.ar    1  UNL1        0.0000
     29 C           4.6996    2.8015    2.2981 C.ar    1  UNL1        0.0000
     30 C           5.4293    2.2966    3.3773 C.ar    1  UNL1        0.0000
     31 C           5.7481    0.9435    3.4385 C.ar    1  UNL1        0.0000
     32 C           5.3337    0.0963    2.4083 C.ar    1  UNL1        0.0000
     33 C           4.6130    0.6018    1.3310 C.ar    1  UNL1        0.0000
     34 C           2.4905   -3.2881    0.0384 C.3     1  UNL1        0.0000
     35 C           3.9149   -2.7660   -0.3124 C.ar    1  UNL1        0.0000
     36 C           4.1262   -2.1703   -1.5657 C.ar    1  UNL1        0.0000
     37 C           5.3870   -1.7138   -1.9387 C.ar    1  UNL1        0.0000
     38 C           6.4722   -1.8536   -1.0725 C.ar    1  UNL1        0.0000
     39 C           6.2791   -2.4642    0.1637 C.ar    1  UNL1        0.0000
     40 C           5.0124   -2.9142    0.5409 C.ar    1  UNL1        0.0000
     41 C           1.9927   -4.2477   -1.0733 C.ar    1  UNL1        0.0000
     42 C           2.8033   -5.2956   -1.5716 C.ar    1  UNL1        0.0000
     43 C           2.2789   -6.1276   -2.5703 C.ar    1  UNL1        0.0000
     44 C           0.9922   -5.9645   -3.0744 C.ar    1  UNL1        0.0000
     45 C           0.1838   -4.9622   -2.5504 C.ar    1  UNL1        0.0000
     46 C           0.6817   -4.1283   -1.5534 C.ar    1  UNL1        0.0000
     47 C           2.4061   -3.9462    1.4270 C.ar    1  UNL1        0.0000
     48 C           2.7538   -3.2224    2.5810 C.ar    1  UNL1        0.0000
     49 C           2.6457   -3.7935    3.8450 C.ar    1  UNL1        0.0000
     50 C           2.1836   -5.1039    3.9894 C.ar    1  UNL1        0.0000
     51 C           1.8346   -5.8301    2.8548 C.ar    1  UNL1        0.0000
     52 C           1.9412   -5.2539    1.5863 C.ar    1  UNL1        0.0000
     53 C          -3.3498   -2.4238   -0.0405 C.3     1  UNL1        0.0000
     54 C          -4.2168   -2.1503    1.2052 C.ar    1  UNL1        0.0000
     55 C          -4.6844   -0.8472    1.4214 C.ar    1  UNL1        0.0000
     56 C          -5.5610   -0.5638    2.4624 C.ar    1  UNL1        0.0000
     57 C          -5.9943   -1.5855    3.3110 C.ar    1  UNL1        0.0000
     58 C          -5.5480   -2.8870    3.0956 C.ar    1  UNL1        0.0000
     59 C          -4.6704   -3.1686    2.0448 C.ar    1  UNL1        0.0000
     60 C          -4.2587   -2.1840   -1.2854 C.ar    1  UNL1        0.0000
     61 C          -5.6340   -2.4417   -1.1690 C.ar    1  UNL1        0.0000
     62 C          -6.4900   -2.3342   -2.2634 C.ar    1  UNL1        0.0000
     63 C          -5.9954   -1.9605   -3.5121 C.ar    1  UNL1        0.0000
     64 C          -4.6315   -1.7072   -3.6459 C.ar    1  UNL1        0.0000
     65 C          -3.7729   -1.8261   -2.5517 C.ar    1  UNL1        0.0000
     66 C          -2.7774   -3.8768   -0.0609 C.ar    1  UNL1        0.0000
     67 C          -1.9201   -4.3816    0.9516 C.ar    1  UNL1        0.0000
     68 C          -1.5002   -5.7176    0.8605 C.ar    1  UNL1        0.0000
     69 C          -1.8868   -6.5569   -0.1770 C.ar    1  UNL1        0.0000
     70 C          -2.7316   -6.0614   -1.1634 C.ar    1  UNL1        0.0000
     71 C          -3.1628   -4.7393   -1.0982 C.ar    1  UNL1        0.0000
     72 C          -2.6472    3.3111   -0.1271 C.3     1  UNL1        0.0000
     73 C          -2.2995    4.1683   -1.3642 C.ar    1  UNL1        0.0000
     74 C          -3.2954    4.7496   -2.1511 C.ar    1  UNL1        0.0000
     75 C          -2.9596    5.5870   -3.2173 C.ar    1  UNL1        0.0000
     76 C          -1.6239    5.8567   -3.5086 C.ar    1  UNL1        0.0000
     77 C          -0.6219    5.2830   -2.7230 C.ar    1  UNL1        0.0000
     78 C          -0.9587    4.4465   -1.6635 C.ar    1  UNL1        0.0000
     79 C          -4.0515    2.6749   -0.3192 C.ar    1  UNL1        0.0000
     80 C          -4.2653    1.6755   -1.2801 C.ar    1  UNL1        0.0000
     81 C          -5.5363    1.1427   -1.4872 C.ar    1  UNL1        0.0000
     82 C          -6.6222    1.5995   -0.7422 C.ar    1  UNL1        0.0000
     83 C          -6.4275    2.6116    0.1957 C.ar    1  UNL1        0.0000
     84 C          -5.1559    3.1491    0.3995 C.ar    1  UNL1        0.0000
     85 C          -2.5831    4.1579    1.1713 C.ar    1  UNL1        0.0000
     86 C          -2.8141    3.6157    2.4599 C.ar    1  UNL1        0.0000
     87 C          -2.7341    4.4689    3.5694 C.ar    1  UNL1        0.0000
     88 C          -2.4575    5.8266    3.4513 C.ar    1  UNL1        0.0000
     89 C          -2.2687    6.3657    2.1832 C.ar    1  UNL1        0.0000
     90 C          -2.3326    5.5342    1.0670 C.ar    1  UNL1        0.0000
     91 C           5.3125    4.8985   -0.3830 C.3     1  UNL1        0.0000
     92 C           4.1967   -5.6067   -1.0742 C.3     1  UNL1        0.0000
     93 C          -1.4086   -3.6028    2.1426 C.3     1  UNL1        0.0000
     94 C          -3.1830    2.1803    2.7614 C.3     1  UNL1        0.0000
     95 H           5.8965    1.2919   -0.6015 H       1  UNL1        0.0000
     96 H           6.9712    1.1791   -2.8023 H       1  UNL1        0.0000
     97 H           5.8671    2.1798   -4.7963 H       1  UNL1        0.0000
     98 H           3.6581    3.3028   -4.5311 H       1  UNL1        0.0000
     99 H           2.5917    3.4236   -2.3151 H       1  UNL1        0.0000
    100 H           1.0391    3.4062    1.0290 H       1  UNL1        0.0000
    101 H           0.2601    5.6773    1.3934 H       1  UNL1        0.0000
    102 H           1.7773    7.6108    0.9172 H       1  UNL1        0.0000
    103 H           4.0748    7.1710    0.1159 H       1  UNL1        0.0000
    104 H           4.4370    3.8517    2.2815 H       1  UNL1        0.0000
    105 H           5.7369    2.9680    4.1733 H       1  UNL1        0.0000
    106 H           6.3094    0.5483    4.2798 H       1  UNL1        0.0000
    107 H           5.5693   -0.9611    2.4374 H       1  UNL1        0.0000
    108 H           4.2952   -0.0763    0.5459 H       1  UNL1        0.0000
    109 H           3.2962   -2.0670   -2.2508 H       1  UNL1        0.0000
    110 H           5.5161   -1.2393   -2.9052 H       1  UNL1        0.0000
    111 H           7.4559   -1.4965   -1.3615 H       1  UNL1        0.0000
    112 H           7.1147   -2.5956    0.8446 H       1  UNL1        0.0000
    113 H           4.8937   -3.4070    1.4967 H       1  UNL1        0.0000
    114 H           2.9063   -6.9280   -2.9530 H       1  UNL1        0.0000
    115 H           0.6233   -6.6252   -3.8532 H       1  UNL1        0.0000
    116 H          -0.8360   -4.8293   -2.8907 H       1  UNL1        0.0000
    117 H           0.0184   -3.3707   -1.1617 H       1  UNL1        0.0000
    118 H           3.0970   -2.1987    2.4922 H       1  UNL1        0.0000
    119 H           2.9181   -3.2104    4.7195 H       1  UNL1        0.0000
    120 H           2.0978   -5.5492    4.9758 H       1  UNL1        0.0000
    121 H           1.4737   -6.8502    2.9481 H       1  UNL1        0.0000
    122 H           1.6442   -5.8266    0.7174 H       1  UNL1        0.0000
    123 H          -4.3842   -0.0536    0.7499 H       1  UNL1        0.0000
    124 H          -5.9123    0.4540    2.5967 H       1  UNL1        0.0000
    125 H          -6.6795   -1.3686    4.1250 H       1  UNL1        0.0000
    126 H          -5.8847   -3.6938    3.7397 H       1  UNL1        0.0000
    127 H          -4.3440   -4.1883    1.8796 H       1  UNL1        0.0000
    128 H          -6.0461   -2.7361   -0.2133 H       1  UNL1        0.0000
    129 H          -7.5475   -2.5432   -2.1333 H       1  UNL1        0.0000
    130 H          -6.6603   -1.8703   -4.3655 H       1  UNL1        0.0000
    131 H          -4.2216   -1.4196   -4.6096 H       1  UNL1        0.0000
    132 H          -2.7178   -1.6528   -2.6909 H       1  UNL1        0.0000
    133 H          -0.8472   -6.0952    1.6404 H       1  UNL1        0.0000
    134 H          -1.5339   -7.5830   -0.2106 H       1  UNL1        0.0000
    135 H          -3.0579   -6.6921   -1.9846 H       1  UNL1        0.0000
    136 H          -3.8239   -4.3759   -1.8719 H       1  UNL1        0.0000
    137 H          -4.3379    4.5522   -1.9319 H       1  UNL1        0.0000
    138 H          -3.7487    6.0279   -3.8189 H       1  UNL1        0.0000
    139 H          -1.3645    6.5079   -4.3377 H       1  UNL1        0.0000
    140 H           0.4244    5.4893   -2.9277 H       1  UNL1        0.0000
    141 H          -0.1656    4.0208   -1.0610 H       1  UNL1        0.0000
    142 H          -3.4355    1.3095   -1.8691 H       1  UNL1        0.0000
    143 H          -5.6698    0.3623   -2.2256 H       1  UNL1        0.0000
    144 H          -7.6081    1.1718   -0.8949 H       1  UNL1        0.0000
    145 H          -7.2644    2.9909    0.7745 H       1  UNL1        0.0000
    146 H          -5.0237    3.9386    1.1284 H       1  UNL1        0.0000
    147 H          -2.9064    4.0426    4.5545 H       1  UNL1        0.0000
    148 H          -2.4051    6.4535    4.3362 H       1  UNL1        0.0000
    149 H          -2.0707    7.4251    2.0529 H       1  UNL1        0.0000
    150 H          -2.1794    5.9721    0.0908 H       1  UNL1        0.0000
    151 H           5.8225    4.0754    0.1195 H       1  UNL1        0.0000
    152 H           5.3870    4.7143   -1.4583 H       1  UNL1        0.0000
    153 H           5.8588    5.8190   -0.1598 H       1  UNL1        0.0000
    154 H           4.2621   -5.5651    0.0147 H       1  UNL1        0.0000
    155 H           4.4818   -6.6144   -1.3879 H       1  UNL1        0.0000
    156 H           4.9397   -4.9090   -1.4701 H       1  UNL1        0.0000
    157 H          -1.1633   -4.2956    2.9512 H       1  UNL1        0.0000
    158 H          -0.4892   -3.0676    1.8963 H       1  UNL1        0.0000
    159 H          -2.1229   -2.8728    2.5158 H       1  UNL1        0.0000
    160 H          -3.3788    1.5779    1.8832 H       1  UNL1        0.0000
    161 H          -4.0798    2.1532    3.3892 H       1  UNL1        0.0000
    162 H          -2.3783    1.6878    3.3158 H       1  UNL1        0.0000
@<TRIPOS>BOND
     1     1    13    1
     2     1    11    1
     3     1     7    1
     4     1     9    1
     5     1     2    1
     6     3    14    1
     7     4    15    1
     8     4     8    1
     9     5    34    1
    10     5    10    1
    11     6    12    1
    12     7     4    1
    13     8     2    1
    14     9     5    1
    15    10     2    1
    16    11     6    1
    17    12     2    1
    18    13     3    1
    19    14     2    1
    20    15    22    1
    21    15    28    1
    22    16    15    1
    23    17    16   ar
    24    17    95    1
    25    18    17   ar
    26    19    20   ar
    27    19    18   ar
    28    20    21   ar
    29    21    99    1
    30    21    16   ar
    31    22    23   ar
    32    23    24   ar
    33    23   100    1
    34    24   101    1
    35    25   102    1
    36    25    24   ar
    37    26    25   ar
    38    27    26   ar
    39    27    22   ar
    40    28    33   ar
    41    28    29   ar
    42    29    30   ar
    43    30    31   ar
    44    30   105    1
    45    31   106    1
    46    32   107    1
    47    32    31   ar
    48    33    32   ar
    49    34    47    1
    50    35    34    1
    51    35    40   ar
    52    36    35   ar
    53    37    36   ar
    54    37    38   ar
    55    38    39   ar
    56    39    40   ar
    57    39   112    1
    58    40   113    1
    59    41    34    1
    60    42    92    1
    61    42    41   ar
    62    43    42   ar
    63    44    43   ar
    64    44    45   ar
    65    45    46   ar
    66    46   117    1
    67    46    41   ar
    68    47    52   ar
    69    47    48   ar
    70    48    49   ar
    71    49    50   ar
    72    49   119    1
    73    50   120    1
    74    51   121    1
    75    51    50   ar
    76    52    51   ar
    77    53     6    1
    78    53    54    1
    79    54    55   ar
    80    54    59   ar
    81    55    56   ar
    82    56   124    1
    83    56    57   ar
    84    57   125    1
    85    58    57   ar
    86    58   126    1
    87    59    58   ar
    88    60    61   ar
    89    60    53    1
    90    61   128    1
    91    62   129    1
    92    62    61   ar
    93    63    62   ar
    94    64    63   ar
    95    64    65   ar
    96    65    60   ar
    97    66    53    1
    98    66    67   ar
    99    67    93    1
   100    68    67   ar
   101    68   133    1
   102    69    68   ar
   103    70    71   ar
   104    70    69   ar
   105    71    66   ar
   106    72     3    1
   107    72    85    1
   108    73    72    1
   109    74   137    1
   110    74    73   ar
   111    75    74   ar
   112    76    75   ar
   113    76    77   ar
   114    77    78   ar
   115    78    73   ar
   116    78   141    1
   117    79    72    1
   118    79    84   ar
   119    80    79   ar
   120    81    80   ar
   121    81    82   ar
   122    82    83   ar
   123    83    84   ar
   124    83   145    1
   125    84   146    1
   126    85    86   ar
   127    86    94    1
   128    86    87   ar
   129    87   147    1
   130    88    87   ar
   131    88   148    1
   132    89    88   ar
   133    90    85   ar
   134    90    89   ar
   135    91   153    1
   136    91    27    1
   137    91   151    1
   138    92   154    1
   139    93   159    1
   140    93   157    1
   141    94   162    1
   142    94   161    1
   143    96    18    1
   144    97    19    1
   145    98    20    1
   146   103    26    1
   147   104    29    1
   148   108    33    1
   149   109    36    1
   150   110    37    1
   151   111    38    1
   152   114    43    1
   153   115    44    1
   154   116    45    1
   155   118    48    1
   156   122    52    1
   157   123    55    1
   158   127    59    1
   159   130    63    1
   160   131    64    1
   161   132    65    1
   162   134    69    1
   163   135    70    1
   164   136    71    1
   165   138    75    1
   166   139    76    1
   167   140    77    1
   168   142    80    1
   169   143    81    1
   170   144    82    1
   171   149    89    1
   172   150    90    1
   173   152    91    1
   174   155    92    1
   175   156    92    1
   176   158    93    1
   177   160    94    1
