@<TRIPOS>MOLECULE
RhRh_Ad-O2C4_C4_sp
 114 129 0 0 0
SMALL
GASTEIGER

@<TRIPOS>ATOM
      1 Rh         -0.0230   -0.0328    1.2651 Rh      1  UNL1        0.0000
      2 Rh         -0.0239   -0.0310   -1.1227 Rh      1  UNL1        0.0000
      3 C           1.8480   -1.8915    0.0706 C.3     1  UNL1        0.0000
      4 C          -1.8750    1.8480    0.0749 C.3     1  UNL1        0.0000
      5 C          -1.9298   -1.8558    0.0722 C.3     1  UNL1        0.0000
      6 C           1.8803    1.7954    0.0730 C.3     1  UNL1        0.0000
      7 O           1.4578    1.3927    1.2039 O.3     1  UNL1        0.0000
      8 O           1.4488    1.4000   -1.0594 O.3     1  UNL1        0.0000
      9 O          -1.4970   -1.4610   -1.0600 O.3     1  UNL1        0.0000
     10 O          -1.5046   -1.4565    1.2033 O.3     1  UNL1        0.0000
     11 O           1.4191   -1.4969    1.2021 O.3     1  UNL1        0.0000
     12 O           1.4223   -1.4884   -1.0612 O.3     1  UNL1        0.0000
     13 O          -1.4635    1.4329   -1.0580 O.3     1  UNL1        0.0000
     14 O          -1.4589    1.4375    1.2054 O.3     1  UNL1        0.0000
     15 C           5.7664    3.6811    0.6215 C.3     1  UNL1        0.0000
     16 C           4.5667    4.2792    1.3793 C.3     1  UNL1        0.0000
     17 C           5.3304    3.2834   -0.8005 C.3     1  UNL1        0.0000
     18 C           4.2047    2.2381   -0.7205 C.3     1  UNL1        0.0000
     19 C           3.4393    3.2343    1.4655 C.3     1  UNL1        0.0000
     20 C           2.9933    2.8296    0.0470 C.3     1  UNL1        0.0000
     21 C           2.4920    4.0871   -0.7100 C.3     1  UNL1        0.0000
     22 C           4.0575    5.5259    0.6321 C.3     1  UNL1        0.0000
     23 C           4.8181    4.5291   -1.5479 C.3     1  UNL1        0.0000
     24 C           3.6197    5.1302   -0.7900 C.3     1  UNL1        0.0000
     25 C          -2.4145    4.1540   -0.7184 C.3     1  UNL1        0.0000
     26 C          -3.5068    5.2343   -0.7971 C.3     1  UNL1        0.0000
     27 C          -2.9527    2.9189    0.0501 C.3     1  UNL1        0.0000
     28 C          -3.3747    3.3473    1.4691 C.3     1  UNL1        0.0000
     29 C          -3.9209    5.6533    0.6253 C.3     1  UNL1        0.0000
     30 C          -4.4667    4.4292    1.3839 C.3     1  UNL1        0.0000
     31 C          -5.6914    3.8674    0.6382 C.3     1  UNL1        0.0000
     32 C          -4.7303    4.6694   -1.5430 C.3     1  UNL1        0.0000
     33 C          -4.1889    2.3642   -0.7051 C.3     1  UNL1        0.0000
     34 C          -5.2791    3.4465   -0.7842 C.3     1  UNL1        0.0000
     35 C          -4.2610   -2.2758   -0.7108 C.3     1  UNL1        0.0000
     36 C          -5.3958   -3.3112   -0.7912 C.3     1  UNL1        0.0000
     37 C          -3.0500   -2.8822    0.0457 C.3     1  UNL1        0.0000
     38 C          -3.4914   -3.2927    1.4642 C.3     1  UNL1        0.0000
     39 C          -5.8269   -3.7148    0.6306 C.3     1  UNL1        0.0000
     40 C          -4.6277   -4.3277    1.3775 C.3     1  UNL1        0.0000
     41 C          -4.1332   -5.5736    0.6191 C.3     1  UNL1        0.0000
     42 C          -4.8981   -4.5561   -1.5499 C.3     1  UNL1        0.0000
     43 C          -2.5636   -4.1386   -0.7225 C.3     1  UNL1        0.0000
     44 C          -3.7004   -5.1719   -0.8028 C.3     1  UNL1        0.0000
     45 C           3.3072   -3.4428    1.4512 C.3     1  UNL1        0.0000
     46 C           4.4813   -4.4354    1.3695 C.3     1  UNL1        0.0000
     47 C           2.9848   -2.8995    0.0454 C.3     1  UNL1        0.0000
     48 C           4.2412   -2.1852   -0.5237 C.3     1  UNL1        0.0000
     49 C           5.7230   -3.7172    0.8090 C.3     1  UNL1        0.0000
     50 C           5.4139   -3.1778   -0.5995 C.3     1  UNL1        0.0000
     51 C           5.0331   -4.3480   -1.5257 C.3     1  UNL1        0.0000
     52 C           4.1045   -5.6067    0.4437 C.3     1  UNL1        0.0000
     53 C           2.6179   -4.0782   -0.8898 C.3     1  UNL1        0.0000
     54 C           3.7927   -5.0687   -0.9648 C.3     1  UNL1        0.0000
     55 H           6.1491    2.8031    1.1569 H       1  UNL1        0.0000
     56 H           6.5840    4.4111    0.5735 H       1  UNL1        0.0000
     57 H           4.8741    4.5581    2.3941 H       1  UNL1        0.0000
     58 H           6.1808    2.8521   -1.3421 H       1  UNL1        0.0000
     59 H           4.5591    1.3369   -0.2037 H       1  UNL1        0.0000
     60 H           3.8846    1.9338   -1.7214 H       1  UNL1        0.0000
     61 H           2.5849    3.6369    2.0195 H       1  UNL1        0.0000
     62 H           3.7791    2.3480    2.0116 H       1  UNL1        0.0000
     63 H           2.1591    3.7972   -1.7112 H       1  UNL1        0.0000
     64 H           1.6235    4.5060   -0.1856 H       1  UNL1        0.0000
     65 H           4.8475    6.2857    0.5844 H       1  UNL1        0.0000
     66 H           3.2143    5.9710    1.1750 H       1  UNL1        0.0000
     67 H           5.6205    5.2727   -1.6312 H       1  UNL1        0.0000
     68 H           4.5204    4.2592   -2.5688 H       1  UNL1        0.0000
     69 H           3.2516    6.0145   -1.3240 H       1  UNL1        0.0000
     70 H          -1.5286    4.5464   -0.2027 H       1  UNL1        0.0000
     71 H          -2.0988    3.8468   -1.7199 H       1  UNL1        0.0000
     72 H          -3.1128    6.1022   -1.3393 H       1  UNL1        0.0000
     73 H          -2.5032    3.7243    2.0145 H       1  UNL1        0.0000
     74 H          -3.7401    2.4765    2.0233 H       1  UNL1        0.0000
     75 H          -4.6851    6.4391    0.5781 H       1  UNL1        0.0000
     76 H          -3.0594    6.0729    1.1597 H       1  UNL1        0.0000
     77 H          -4.7573    4.7246    2.3990 H       1  UNL1        0.0000
     78 H          -6.0997    3.0062    1.1819 H       1  UNL1        0.0000
     79 H          -6.4841    4.6244    0.5913 H       1  UNL1        0.0000
     80 H          -4.4492    4.3833   -2.5641 H       1  UNL1        0.0000
     81 H          -5.5075    5.4393   -1.6254 H       1  UNL1        0.0000
     82 H          -3.8865    2.0431   -1.7064 H       1  UNL1        0.0000
     83 H          -4.5699    1.4789   -0.1797 H       1  UNL1        0.0000
     84 H          -6.1475    3.0410   -1.3172 H       1  UNL1        0.0000
     85 H          -4.6050   -1.3753   -0.1857 H       1  UNL1        0.0000
     86 H          -3.9442   -1.9676   -1.7117 H       1  UNL1        0.0000
     87 H          -6.2458   -2.8693   -1.3250 H       1  UNL1        0.0000
     88 H          -3.8207   -2.4073    2.0180 H       1  UNL1        0.0000
     89 H          -2.6371   -3.7060    2.0106 H       1  UNL1        0.0000
     90 H          -6.6506   -4.4379    0.5825 H       1  UNL1        0.0000
     91 H          -6.1993   -2.8374    1.1741 H       1  UNL1        0.0000
     92 H          -4.9316   -4.6109    2.3922 H       1  UNL1        0.0000
     93 H          -3.2906   -6.0293    1.1541 H       1  UNL1        0.0000
     94 H          -4.9298   -6.3265    0.5709 H       1  UNL1        0.0000
     95 H          -4.6041   -4.2819   -2.5706 H       1  UNL1        0.0000
     96 H          -5.7070   -5.2925   -1.6333 H       1  UNL1        0.0000
     97 H          -2.2342   -3.8448   -1.7237 H       1  UNL1        0.0000
     98 H          -1.6959   -4.5682   -0.2058 H       1  UNL1        0.0000
     99 H          -3.3426   -6.0556   -1.3448 H       1  UNL1        0.0000
    100 H           3.5532   -2.6119    2.1196 H       1  UNL1        0.0000
    101 H           2.4205   -3.9320    1.8691 H       1  UNL1        0.0000
    102 H           4.6988   -4.8153    2.3748 H       1  UNL1        0.0000
    103 H           4.5016   -1.3377    0.1235 H       1  UNL1        0.0000
    104 H           4.0091   -1.7808   -1.5140 H       1  UNL1        0.0000
    105 H           6.5726   -4.4102    0.7675 H       1  UNL1        0.0000
    106 H           6.0116   -2.8925    1.4728 H       1  UNL1        0.0000
    107 H           6.2942   -2.6607   -1.0003 H       1  UNL1        0.0000
    108 H           4.8264   -3.9756   -2.5367 H       1  UNL1        0.0000
    109 H           5.8717   -5.0509   -1.6053 H       1  UNL1        0.0000
    110 H           3.2321   -6.1375    0.8451 H       1  UNL1        0.0000
    111 H           4.9282   -6.3299    0.3964 H       1  UNL1        0.0000
    112 H           1.7210   -4.5816   -0.5071 H       1  UNL1        0.0000
    113 H           2.3731   -3.6903   -1.8827 H       1  UNL1        0.0000
    114 H           3.5188   -5.8991   -1.6265 H       1  UNL1        0.0000
@<TRIPOS>BOND
     1     2    12    1
     2     2     9    1
     3     2     8    1
     4     2    13    1
     5     2     1    1
     6     3    12    1
     7     3    11    1
     8     4    13    1
     9     4    14    1
    10     5     9    1
    11     5    10    1
    12     6     8    1
    13     6     7    1
    14     7     1    1
    15    10     1    1
    16    11     1    1
    17    14     1    1
    18    15    55    1
    19    15    16    1
    20    16    19    1
    21    16    57    1
    22    17    58    1
    23    17    18    1
    24    17    15    1
    25    18    59    1
    26    19    62    1
    27    19    61    1
    28    20    18    1
    29    20     6    1
    30    20    19    1
    31    21    64    1
    32    21    20    1
    33    22    66    1
    34    22    16    1
    35    23    17    1
    36    23    24    1
    37    24    69    1
    38    24    21    1
    39    24    22    1
    40    25    70    1
    41    26    72    1
    42    26    25    1
    43    26    29    1
    44    27    25    1
    45    27     4    1
    46    27    28    1
    47    28    73    1
    48    28    74    1
    49    29    76    1
    50    29    30    1
    51    30    28    1
    52    30    77    1
    53    31    78    1
    54    31    30    1
    55    32    26    1
    56    32    34    1
    57    33    83    1
    58    33    27    1
    59    34    84    1
    60    34    33    1
    61    34    31    1
    62    35    85    1
    63    35    37    1
    64    36    87    1
    65    36    35    1
    66    36    39    1
    67    37    43    1
    68    37     5    1
    69    37    38    1
    70    38    89    1
    71    38    88    1
    72    39    91    1
    73    39    40    1
    74    40    38    1
    75    40    92    1
    76    41    93    1
    77    41    40    1
    78    42    44    1
    79    42    36    1
    80    43    98    1
    81    44    99    1
    82    44    43    1
    83    44    41    1
    84    45   101    1
    85    45   100    1
    86    46    45    1
    87    46   102    1
    88    47    53    1
    89    47     3    1
    90    47    45    1
    91    48    47    1
    92    48   103    1
    93    49    46    1
    94    49   106    1
    95    50   107    1
    96    50    48    1
    97    50    49    1
    98    51    54    1
    99    51    50    1
   100    52   110    1
   101    52    46    1
   102    53   112    1
   103    54   114    1
   104    54    53    1
   105    54    52    1
   106    56    15    1
   107    60    18    1
   108    63    21    1
   109    65    22    1
   110    67    23    1
   111    68    23    1
   112    71    25    1
   113    75    29    1
   114    79    31    1
   115    80    32    1
   116    81    32    1
   117    82    33    1
   118    86    35    1
   119    90    39    1
   120    94    41    1
   121    95    42    1
   122    96    42    1
   123    97    43    1
   124   104    48    1
   125   105    49    1
   126   108    51    1
   127   109    51    1
   128   111    52    1
   129   113    53    1
