@<TRIPOS>MOLECULE
RhRh_MeMePh-O2C4_3ax-1eq_sp
 94 101 0 0 0
SMALL
GASTEIGER

@<TRIPOS>ATOM
      1 Rh         -0.2562   -0.5448    1.0209 Rh      1  UNL1        0.0000
      2 Rh         -0.5574   -0.8700   -1.3250 Rh      1  UNL1        0.0000
      3 C          -1.7900    1.5355   -0.2866 C.3     1  UNL1        0.0000
      4 C          -2.6482   -2.0070    0.3269 C.3     1  UNL1        0.0000
      5 C           1.1215   -2.8473   -0.0466 C.3     1  UNL1        0.0000
      6 C           1.7660    0.7086   -0.6370 C.3     1  UNL1        0.0000
      7 O           1.4719    0.4837    0.5785 O.3     1  UNL1        0.0000
      8 O           1.1153    0.2652   -1.6397 O.3     1  UNL1        0.0000
      9 O           0.8210   -2.2927    1.0603 O.3     1  UNL1        0.0000
     10 O           0.6434   -2.5328   -1.1817 O.3     1  UNL1        0.0000
     11 O          -2.0114   -1.5612    1.3330 O.3     1  UNL1        0.0000
     12 O          -2.2514   -1.9615   -0.8817 O.3     1  UNL1        0.0000
     13 O          -1.3363    1.1948    0.8535 O.3     1  UNL1        0.0000
     14 O          -1.6792    0.8556   -1.3550 O.3     1  UNL1        0.0000
     15 C           2.9657    1.6090   -0.9797 C.3     1  UNL1        0.0000
     16 C           3.7302    2.0426    0.2721 C.ar    1  UNL1        0.0000
     17 C           3.0622    2.7323    1.2957 C.ar    1  UNL1        0.0000
     18 C           3.7412    3.1779    2.4253 C.ar    1  UNL1        0.0000
     19 C           5.1127    2.9500    2.5588 C.ar    1  UNL1        0.0000
     20 C           5.7904    2.2748    1.5473 C.ar    1  UNL1        0.0000
     21 C           5.1039    1.8267    0.4154 C.ar    1  UNL1        0.0000
     22 C           2.2041   -3.9338   -0.0123 C.3     1  UNL1        0.0000
     23 C           3.5441   -3.1717   -0.1055 C.ar    1  UNL1        0.0000
     24 C           4.4779   -3.4299   -1.1145 C.ar    1  UNL1        0.0000
     25 C           5.6998   -2.7537   -1.1479 C.ar    1  UNL1        0.0000
     26 C           6.0057   -1.8035   -0.1759 C.ar    1  UNL1        0.0000
     27 C           5.0751   -1.5254    0.8269 C.ar    1  UNL1        0.0000
     28 C           3.8575   -2.1992    0.8576 C.ar    1  UNL1        0.0000
     29 C          -4.0479   -2.5801    0.5911 C.3     1  UNL1        0.0000
     30 C          -4.9948   -1.3670    0.4810 C.ar    1  UNL1        0.0000
     31 C          -5.7555   -0.9138    1.5636 C.ar    1  UNL1        0.0000
     32 C          -6.6170    0.1771    1.4280 C.ar    1  UNL1        0.0000
     33 C          -6.7343    0.8339    0.2051 C.ar    1  UNL1        0.0000
     34 C          -5.9721    0.3968   -0.8799 C.ar    1  UNL1        0.0000
     35 C          -5.1038   -0.6833   -0.7401 C.ar    1  UNL1        0.0000
     36 C          -2.4936    2.8990   -0.3735 C.3     1  UNL1        0.0000
     37 C          -1.3793    3.9647   -0.3124 C.ar    1  UNL1        0.0000
     38 C          -0.6174    4.1223    0.8566 C.ar    1  UNL1        0.0000
     39 C           0.3773    5.0941    0.9399 C.ar    1  UNL1        0.0000
     40 C           0.6441    5.9260   -0.1487 C.ar    1  UNL1        0.0000
     41 C          -0.0949    5.7710   -1.3188 C.ar    1  UNL1        0.0000
     42 C          -1.0951    4.7995   -1.3991 C.ar    1  UNL1        0.0000
     43 C          -4.4101   -3.6320   -0.4760 C.3     1  UNL1        0.0000
     44 C          -4.0761   -3.2398    1.9775 C.3     1  UNL1        0.0000
     45 C          -3.3152    2.9748   -1.6671 C.3     1  UNL1        0.0000
     46 C          -3.4498    3.0472    0.8317 C.3     1  UNL1        0.0000
     47 C           3.8401    0.8411   -1.9909 C.3     1  UNL1        0.0000
     48 C           2.3806    2.8658   -1.6796 C.3     1  UNL1        0.0000
     49 C           1.9856   -4.9123   -1.1744 C.3     1  UNL1        0.0000
     50 C           2.1423   -4.7050    1.3225 C.3     1  UNL1        0.0000
     51 H           1.9986    2.9121    1.2102 H       1  UNL1        0.0000
     52 H           3.1978    3.7038    3.2053 H       1  UNL1        0.0000
     53 H           5.6443    3.2974    3.4396 H       1  UNL1        0.0000
     54 H           6.8579    2.0927    1.6323 H       1  UNL1        0.0000
     55 H           5.6537    1.2960   -0.3512 H       1  UNL1        0.0000
     56 H           4.2644   -4.1630   -1.8826 H       1  UNL1        0.0000
     57 H           6.4104   -2.9741   -1.9389 H       1  UNL1        0.0000
     58 H           6.9555   -1.2779   -0.2024 H       1  UNL1        0.0000
     59 H           5.2867   -0.7694    1.5749 H       1  UNL1        0.0000
     60 H           3.1354   -1.9562    1.6277 H       1  UNL1        0.0000
     61 H          -5.6856   -1.4087    2.5243 H       1  UNL1        0.0000
     62 H          -7.1978    0.5088    2.2833 H       1  UNL1        0.0000
     63 H          -7.4085    1.6779    0.0973 H       1  UNL1        0.0000
     64 H          -6.0537    0.8975   -1.8398 H       1  UNL1        0.0000
     65 H          -4.4955   -0.9915   -1.5826 H       1  UNL1        0.0000
     66 H          -0.7933    3.4663    1.7002 H       1  UNL1        0.0000
     67 H           0.9517    5.1966    1.8555 H       1  UNL1        0.0000
     68 H           1.4235    6.6787   -0.0856 H       1  UNL1        0.0000
     69 H           0.1042    6.4044   -2.1779 H       1  UNL1        0.0000
     70 H          -1.6534    4.7023   -2.3216 H       1  UNL1        0.0000
     71 H          -5.4272   -3.9922   -0.2981 H       1  UNL1        0.0000
     72 H          -4.3550   -3.2242   -1.4845 H       1  UNL1        0.0000
     73 H          -3.7251   -4.4833   -0.4193 H       1  UNL1        0.0000
     74 H          -3.3756   -4.0790    2.0002 H       1  UNL1        0.0000
     75 H          -3.7857   -2.5436    2.7643 H       1  UNL1        0.0000
     76 H          -5.0761   -3.6283    2.1897 H       1  UNL1        0.0000
     77 H          -3.8047    3.9500   -1.7410 H       1  UNL1        0.0000
     78 H          -2.7011    2.8136   -2.5536 H       1  UNL1        0.0000
     79 H          -4.0858    2.2031   -1.6522 H       1  UNL1        0.0000
     80 H          -2.9239    2.9439    1.7802 H       1  UNL1        0.0000
     81 H          -3.9232    4.0325    0.7983 H       1  UNL1        0.0000
     82 H          -4.2313    2.2833    0.7908 H       1  UNL1        0.0000
     83 H           4.6615    1.4759   -2.3348 H       1  UNL1        0.0000
     84 H           4.2588   -0.0695   -1.5565 H       1  UNL1        0.0000
     85 H           3.2355    0.5629   -2.8545 H       1  UNL1        0.0000
     86 H           3.1993    3.5384   -1.9500 H       1  UNL1        0.0000
     87 H           1.8409    2.5766   -2.5838 H       1  UNL1        0.0000
     88 H           1.6956    3.4115   -1.0288 H       1  UNL1        0.0000
     89 H           2.7473   -5.6965   -1.1558 H       1  UNL1        0.0000
     90 H           1.0073   -5.3901   -1.0760 H       1  UNL1        0.0000
     91 H           2.0140   -4.4068   -2.1402 H       1  UNL1        0.0000
     92 H           2.9487   -5.4429    1.3502 H       1  UNL1        0.0000
     93 H           2.2499   -4.0377    2.1770 H       1  UNL1        0.0000
     94 H           1.1868   -5.2302    1.4183 H       1  UNL1        0.0000
@<TRIPOS>BOND
     1     1     9    1
     2     1    11    1
     3     2    10    1
     4     2    12    1
     5     2     1    1
     6     3    13    1
     7     4    29    1
     8     4    11    1
     9     5    22    1
    10     5     9    1
    11     6     7    1
    12     7     1    1
    13     8     2    1
    14     8     6    1
    15    10     5    1
    16    12     4    1
    17    13     1    1
    18    14     2    1
    19    14     3    1
    20    15     6    1
    21    15    16    1
    22    16    21   ar
    23    16    17   ar
    24    17    18   ar
    25    18    19   ar
    26    18    52    1
    27    19    53    1
    28    20    54    1
    29    20    19   ar
    30    21    20   ar
    31    22    50    1
    32    23    22    1
    33    23    28   ar
    34    24    23   ar
    35    25    24   ar
    36    25    26   ar
    37    26    27   ar
    38    27    28   ar
    39    27    59    1
    40    28    60    1
    41    29    44    1
    42    30    29    1
    43    30    31   ar
    44    31    61    1
    45    32    31   ar
    46    32    62    1
    47    33    32   ar
    48    34    35   ar
    49    34    33   ar
    50    35    30   ar
    51    36    37    1
    52    36     3    1
    53    36    46    1
    54    37    38   ar
    55    38    39   ar
    56    38    66    1
    57    39    67    1
    58    40    68    1
    59    40    39   ar
    60    41    40   ar
    61    42    41   ar
    62    42    37   ar
    63    43    73    1
    64    43    71    1
    65    43    29    1
    66    44    74    1
    67    44    76    1
    68    44    75    1
    69    45    79    1
    70    45    36    1
    71    46    80    1
    72    47    84    1
    73    47    15    1
    74    48    88    1
    75    48    15    1
    76    49    89    1
    77    49    90    1
    78    49    22    1
    79    50    92    1
    80    50    94    1
    81    50    93    1
    82    51    17    1
    83    55    21    1
    84    56    24    1
    85    57    25    1
    86    58    26    1
    87    63    33    1
    88    64    34    1
    89    65    35    1
    90    69    41    1
    91    70    42    1
    92    72    43    1
    93    77    45    1
    94    78    45    1
    95    81    46    1
    96    82    46    1
    97    83    47    1
    98    85    47    1
    99    86    48    1
   100    87    48    1
   101    91    49    1
