@<TRIPOS>MOLECULE
RhRh_ACyPentyl4_19_sp
 126 141 0 0 0
SMALL
GASTEIGER

@<TRIPOS>ATOM
      1 Rh          0.7430   -0.0249   -0.9368 Rh      1  UNL1        0.0000
      2 Rh         -0.7430    0.0252    0.9370 Rh      1  UNL1        0.0000
      3 C          -0.5878    2.4998   -0.5679 C.3     1  UNL1        0.0000
      4 C          -1.9729   -0.7949   -1.5532 C.3     1  UNL1        0.0000
      5 C           0.5878   -2.4995    0.5682 C.3     1  UNL1        0.0000
      6 C           1.9728    0.7952    1.5534 C.3     1  UNL1        0.0000
      7 O           0.2764    1.9478   -1.3152 O.3     1  UNL1        0.0000
      8 O          -1.1115    1.9857    0.4716 O.3     1  UNL1        0.0000
      9 O           2.2512    0.5631    0.3344 O.3     1  UNL1        0.0000
     10 O           0.8439    0.6135    2.1055 O.3     1  UNL1        0.0000
     11 O          -0.2762   -1.9475    1.3157 O.3     1  UNL1        0.0000
     12 O           1.1112   -1.9855   -0.4715 O.3     1  UNL1        0.0000
     13 O          -2.2511   -0.5632   -0.3341 O.3     1  UNL1        0.0000
     14 O          -0.8440   -0.6129   -2.1054 O.3     1  UNL1        0.0000
     15 N          -2.3924    4.0731   -0.3518 N.am    1  UNL1        0.0000
     16 N           4.0857    1.9672    1.5355 N.am    1  UNL1        0.0000
     17 N           2.3925   -4.0727    0.3520 N.am    1  UNL1        0.0000
     18 N          -4.0854   -1.9675   -1.5355 N.am    1  UNL1        0.0000
     19 C          -1.0476    3.9269   -0.9246 C.3     1  UNL1        0.0000
     20 C          -1.0438    4.1621   -2.4696 C.3     1  UNL1        0.0000
     21 C           0.2089    5.0158   -2.7850 C.3     1  UNL1        0.0000
     22 C           1.0432    5.0019   -1.4955 C.3     1  UNL1        0.0000
     23 C          -0.0078    4.9469   -0.3848 C.3     1  UNL1        0.0000
     24 C          -2.7136    4.5879    0.9276 C.2     1  UNL1        0.0000
     25 C          -4.0853    4.0855    1.2327 C.ar    1  UNL1        0.0000
     26 C          -4.8909    4.3201    2.3361 C.ar    1  UNL1        0.0000
     27 C          -6.1215    3.6533    2.3839 C.ar    1  UNL1        0.0000
     28 C          -6.5128    2.7799    1.3606 C.ar    1  UNL1        0.0000
     29 C          -5.6940    2.5482    0.2484 C.ar    1  UNL1        0.0000
     30 C          -4.4841    3.2265    0.2097 C.ar    1  UNL1        0.0000
     31 C          -3.3884    3.1736   -0.7867 C.2     1  UNL1        0.0000
     32 C           3.0987    1.3606    2.4388 C.3     1  UNL1        0.0000
     33 C           2.5327    2.3763    3.4701 C.3     1  UNL1        0.0000
     34 C           2.0877    1.5404    4.6948 C.3     1  UNL1        0.0000
     35 C           2.6603    0.1175    4.4779 C.3     1  UNL1        0.0000
     36 C           3.6941    0.2604    3.3555 C.3     1  UNL1        0.0000
     37 C           3.7136    3.0748    0.7424 C.2     1  UNL1        0.0000
     38 C           4.7581    3.2203   -0.3035 C.ar    1  UNL1        0.0000
     39 C           4.8986    4.1646   -1.3094 C.ar    1  UNL1        0.0000
     40 C           5.9837    4.0142   -2.1813 C.ar    1  UNL1        0.0000
     41 C           6.8862    2.9522   -2.0378 C.ar    1  UNL1        0.0000
     42 C           6.7329    2.0058   -1.0174 C.ar    1  UNL1        0.0000
     43 C           5.6547    2.1643   -0.1609 C.ar    1  UNL1        0.0000
     44 C           5.2134    1.3193    0.9848 C.2     1  UNL1        0.0000
     45 C           1.0479   -3.9265    0.9251 C.3     1  UNL1        0.0000
     46 C           1.0444   -4.1612    2.4701 C.3     1  UNL1        0.0000
     47 C          -0.2102   -5.0120    2.7865 C.3     1  UNL1        0.0000
     48 C          -1.0434   -5.0004    1.4963 C.3     1  UNL1        0.0000
     49 C           0.0081   -4.9469    0.3860 C.3     1  UNL1        0.0000
     50 C           2.7135   -4.5879   -0.9273 C.2     1  UNL1        0.0000
     51 C           4.0851   -4.0855   -1.2329 C.ar    1  UNL1        0.0000
     52 C           4.8904   -4.3204   -2.3364 C.ar    1  UNL1        0.0000
     53 C           6.1211   -3.6537   -2.3847 C.ar    1  UNL1        0.0000
     54 C           6.5126   -2.7801   -1.3617 C.ar    1  UNL1        0.0000
     55 C           5.6940   -2.5480   -0.2493 C.ar    1  UNL1        0.0000
     56 C           4.4841   -3.2262   -0.2102 C.ar    1  UNL1        0.0000
     57 C           3.3887   -3.1730    0.7865 C.2     1  UNL1        0.0000
     58 C          -3.0987   -1.3602   -2.4386 C.3     1  UNL1        0.0000
     59 C          -2.5326   -2.3754   -3.4705 C.3     1  UNL1        0.0000
     60 C          -2.0880   -1.5389   -4.6949 C.3     1  UNL1        0.0000
     61 C          -2.6608   -0.1162   -4.4773 C.3     1  UNL1        0.0000
     62 C          -3.6945   -0.2599   -3.3549 C.3     1  UNL1        0.0000
     63 C          -5.2134   -1.3201   -0.9845 C.2     1  UNL1        0.0000
     64 C          -5.6546   -2.1660    0.1606 C.ar    1  UNL1        0.0000
     65 C          -6.7329   -2.0084    1.0171 C.ar    1  UNL1        0.0000
     66 C          -6.8861   -2.9555    2.0368 C.ar    1  UNL1        0.0000
     67 C          -5.9834   -4.0173    2.1797 C.ar    1  UNL1        0.0000
     68 C          -4.8981   -4.1668    1.3079 C.ar    1  UNL1        0.0000
     69 C          -4.7577   -3.2219    0.3027 C.ar    1  UNL1        0.0000
     70 C          -3.7130   -3.0754   -0.7431 C.2     1  UNL1        0.0000
     71 H          -1.0391    3.2085   -2.9936 H       1  UNL1        0.0000
     72 H          -1.9647    4.6781   -2.7459 H       1  UNL1        0.0000
     73 H          -0.0896    6.0422   -3.0255 H       1  UNL1        0.0000
     74 H           0.7599    4.6292   -3.6468 H       1  UNL1        0.0000
     75 H           1.6952    5.8744   -1.3909 H       1  UNL1        0.0000
     76 H           1.6714    4.1098   -1.4513 H       1  UNL1        0.0000
     77 H          -0.5076    5.9127   -0.2803 H       1  UNL1        0.0000
     78 H           0.3947    4.6732    0.5890 H       1  UNL1        0.0000
     79 H          -4.5672    4.9851    3.1293 H       1  UNL1        0.0000
     80 H          -6.7806    3.8068    3.2328 H       1  UNL1        0.0000
     81 H          -7.4676    2.2688    1.4357 H       1  UNL1        0.0000
     82 H          -5.9704    1.8495   -0.5331 H       1  UNL1        0.0000
     83 H           3.3549    3.0484    3.7328 H       1  UNL1        0.0000
     84 H           1.7349    2.9834    3.0487 H       1  UNL1        0.0000
     85 H           0.9989    1.5148    4.7713 H       1  UNL1        0.0000
     86 H           2.4686    1.9897    5.6169 H       1  UNL1        0.0000
     87 H           3.1123   -0.3021    5.3809 H       1  UNL1        0.0000
     88 H           1.8673   -0.5653    4.1626 H       1  UNL1        0.0000
     89 H           3.9082   -0.6661    2.8310 H       1  UNL1        0.0000
     90 H           4.6365    0.6549    3.7476 H       1  UNL1        0.0000
     91 H           7.4200    1.1752   -0.8978 H       1  UNL1        0.0000
     92 H           1.0427   -3.2076    2.9940 H       1  UNL1        0.0000
     93 H           1.9643   -4.6796    2.7455 H       1  UNL1        0.0000
     94 H           0.0865   -6.0381    3.0305 H       1  UNL1        0.0000
     95 H          -0.7613   -4.6219    3.6466 H       1  UNL1        0.0000
     96 H          -1.6952   -5.8732    1.3927 H       1  UNL1        0.0000
     97 H          -1.6718   -4.1085    1.4502 H       1  UNL1        0.0000
     98 H           0.5080   -5.9129    0.2828 H       1  UNL1        0.0000
     99 H          -0.3939   -4.6743   -0.5882 H       1  UNL1        0.0000
    100 H           4.5666   -4.9857   -3.1294 H       1  UNL1        0.0000
    101 H           6.7799   -3.8075   -3.2337 H       1  UNL1        0.0000
    102 H           7.4674   -2.2690   -1.4371 H       1  UNL1        0.0000
    103 H           5.9706   -1.8491    0.5319 H       1  UNL1        0.0000
    104 H          -3.3546   -3.0477   -3.7333 H       1  UNL1        0.0000
    105 H          -1.7345   -2.9824   -3.0493 H       1  UNL1        0.0000
    106 H          -0.9991   -1.5131   -4.7717 H       1  UNL1        0.0000
    107 H          -2.4689   -1.9879   -5.6171 H       1  UNL1        0.0000
    108 H          -3.1129    0.3037   -5.3801 H       1  UNL1        0.0000
    109 H          -1.8679    0.5666   -4.1617 H       1  UNL1        0.0000
    110 H          -3.9088    0.6664   -2.8300 H       1  UNL1        0.0000
    111 H          -4.6368   -0.6544   -3.7470 H       1  UNL1        0.0000
    112 H          -4.1877   -4.9791    1.4121 H       1  UNL1        0.0000
    113 O          -2.7093   -3.7416   -0.8997 O.2     1  UNL1        0.0000
    114 O          -5.7278   -0.2900   -1.3703 O.2     1  UNL1        0.0000
    115 O           3.2949   -2.4825    1.7832 O.2     1  UNL1        0.0000
    116 O           2.0140   -5.2888   -1.6270 O.2     1  UNL1        0.0000
    117 O           5.7277    0.2892    1.3712 O.2     1  UNL1        0.0000
    118 O           2.7100    3.7414    0.8987 O.2     1  UNL1        0.0000
    119 O          -3.2943    2.4833   -1.7837 O.2     1  UNL1        0.0000
    120 O          -2.0143    5.2885    1.6277 O.2     1  UNL1        0.0000
    121 H           4.1884    4.9770   -1.4140 H       1  UNL1        0.0000
    122 H           6.1283    4.7290   -2.9850 H       1  UNL1        0.0000
    123 H           7.7150    2.8623   -2.7329 H       1  UNL1        0.0000
    124 H          -7.4202   -1.1779    0.8978 H       1  UNL1        0.0000
    125 H          -7.7150   -2.8662    2.7318 H       1  UNL1        0.0000
    126 H          -6.1278   -4.7327    2.9830 H       1  UNL1        0.0000
@<TRIPOS>BOND
     1     1    12    1
     2     1     9    1
     3     1     2    1
     4     2    11    1
     5     2    10    1
     6     3     8    1
     7     4    13    1
     8     5    45    1
     9     5    11    1
    10     6    10    1
    11     6    32    1
    12     7     1    1
    13     7     3    1
    14     8     2    1
    15     9     6    1
    16    12     5    1
    17    13     2    1
    18    14     4    1
    19    14     1    1
    20    15    24   am
    21    16    32    1
    22    17    57   am
    23    17    45    1
    24    18    63   am
    25    18    70   am
    26    19     3    1
    27    19    23    1
    28    19    15    1
    29    20    19    1
    30    21    20    1
    31    21    22    1
    32    22    76    1
    33    22    75    1
    34    22    23    1
    35    23    77    1
    36    23    78    1
    37    24    25    1
    38    24   120    2
    39    25    26   ar
    40    26    27   ar
    41    26    79    1
    42    27    80    1
    43    28    81    1
    44    28    27   ar
    45    29    28   ar
    46    30    29   ar
    47    30    25   ar
    48    31    15   am
    49    31    30    1
    50    32    36    1
    51    32    33    1
    52    33    83    1
    53    33    34    1
    54    34    85    1
    55    34    86    1
    56    35    34    1
    57    35    87    1
    58    36    90    1
    59    36    35    1
    60    37   118    2
    61    37    16   am
    62    38    43   ar
    63    38    37    1
    64    39    38   ar
    65    40    41   ar
    66    40    39   ar
    67    41    42   ar
    68    42    91    1
    69    42    43   ar
    70    43    44    1
    71    44   117    2
    72    44    16   am
    73    45    46    1
    74    46    93    1
    75    46    47    1
    76    46    92    1
    77    47    94    1
    78    47    95    1
    79    48    47    1
    80    49    45    1
    81    49    48    1
    82    50    17   am
    83    51    50    1
    84    51    56   ar
    85    52    51   ar
    86    53    52   ar
    87    53    54   ar
    88    54    55   ar
    89    55    56   ar
    90    55   103    1
    91    56    57    1
    92    57   115    2
    93    58     4    1
    94    58    18    1
    95    59   105    1
    96    59    58    1
    97    60    61    1
    98    60    59    1
    99    61   109    1
   100    61    62    1
   101    62   110    1
   102    62    58    1
   103    63    64    1
   104    64    69   ar
   105    64    65   ar
   106    65    66   ar
   107    66    67   ar
   108    66   125    1
   109    67   126    1
   110    68   112    1
   111    68    67   ar
   112    69    68   ar
   113    70    69    1
   114    71    20    1
   115    72    20    1
   116    73    21    1
   117    74    21    1
   118    82    29    1
   119    84    33    1
   120    88    35    1
   121    89    36    1
   122    96    48    1
   123    97    48    1
   124    98    49    1
   125    99    49    1
   126   100    52    1
   127   101    53    1
   128   102    54    1
   129   104    59    1
   130   106    60    1
   131   107    60    1
   132   108    61    1
   133   111    62    1
   134   113    70    2
   135   114    63    2
   136   116    50    2
   137   119    31    2
   138   121    39    1
   139   122    40    1
   140   123    41    1
   141   124    65    1
