@<TRIPOS>MOLECULE
RhRh_cis-Cy-fused-Hback-S-PTV4_13_sp
 146 157 0 0 0
SMALL
GASTEIGER

@<TRIPOS>ATOM
      1 Rh         -0.1415    0.0334    0.1250 Rh      1  UNL1        0.0000
      2 Rh         -0.0461    0.1135   -2.2645 Rh      1  UNL1        0.0000
      3 C          -1.2270    2.4339   -1.0303 C.3     1  UNL1        0.0000
      4 C           1.0639   -2.2726   -1.1013 C.3     1  UNL1        0.0000
      5 C          -2.4598   -1.0360   -1.2021 C.3     1  UNL1        0.0000
      6 C           2.2600    1.2096   -0.9285 C.3     1  UNL1        0.0000
      7 O           1.6827    0.9393    0.1742 O.3     1  UNL1        0.0000
      8 O           1.7759    1.0524   -2.0859 O.3     1  UNL1        0.0000
      9 O          -1.0436    1.8574    0.0909 O.3     1  UNL1        0.0000
     10 O          -0.9914    1.9430   -2.1715 O.3     1  UNL1        0.0000
     11 O          -1.9678   -0.8565   -0.0406 O.3     1  UNL1        0.0000
     12 O          -1.8788   -0.8294   -2.3057 O.3     1  UNL1        0.0000
     13 O           0.7765   -1.7808    0.0384 O.3     1  UNL1        0.0000
     14 O           0.9020   -1.7100   -2.2224 O.3     1  UNL1        0.0000
     15 N           4.3580    0.9297    0.2052 N.am    1  UNL1        0.0000
     16 N          -1.0313    4.4978    0.1685 N.am    1  UNL1        0.0000
     17 N          -4.6317   -0.7934   -0.1944 N.am    1  UNL1        0.0000
     18 N           0.8608   -4.4222   -0.0669 N.am    1  UNL1        0.0000
     19 C           5.0080    1.4576    1.3252 C.2     1  UNL1        0.0000
     20 C           4.2379   -0.4615    0.2646 C.2     1  UNL1        0.0000
     21 C           0.3640    4.4639    0.2576 C.2     1  UNL1        0.0000
     22 C          -1.6259    4.7680    1.4102 C.2     1  UNL1        0.0000
     23 C          -4.5290    0.5960   -0.0560 C.2     1  UNL1        0.0000
     24 C          -5.1920   -1.3982    0.9338 C.2     1  UNL1        0.0000
     25 C          -0.5378   -4.4196   -0.0687 C.2     1  UNL1        0.0000
     26 C           1.3829   -4.7906    1.1818 C.2     1  UNL1        0.0000
     27 C           3.6641    1.7846   -0.7611 C.3     1  UNL1        0.0000
     28 C           4.4864    2.0748   -2.0302 C.3     1  UNL1        0.0000
     29 C           4.8048    0.8366   -2.8748 C.3     1  UNL1        0.0000
     30 C           3.8226    3.1830   -2.8605 C.3     1  UNL1        0.0000
     31 C          -1.8009    3.8439   -0.8979 C.3     1  UNL1        0.0000
     32 C          -1.9759    4.6839   -2.1757 C.3     1  UNL1        0.0000
     33 C          -3.0323    4.0410   -3.0879 C.3     1  UNL1        0.0000
     34 C          -0.6816    4.9871   -2.9387 C.3     1  UNL1        0.0000
     35 C          -3.8885   -1.5703   -1.1920 C.3     1  UNL1        0.0000
     36 C          -4.5790   -1.7031   -2.5593 C.3     1  UNL1        0.0000
     37 C          -5.8793   -2.5003   -2.3973 C.3     1  UNL1        0.0000
     38 C          -4.8331   -0.3764   -3.2827 C.3     1  UNL1        0.0000
     39 C           1.6778   -3.6692   -1.0242 C.3     1  UNL1        0.0000
     40 C           1.9763   -4.4112   -2.3392 C.3     1  UNL1        0.0000
     41 C           0.7528   -4.6938   -3.2176 C.3     1  UNL1        0.0000
     42 C           3.0782   -3.6792   -3.1206 C.3     1  UNL1        0.0000
     43 C           0.1085   -3.6963    2.9713 C.3     1  UNL1        0.0000
     44 C           0.2070   -4.9957    2.1253 C.3     1  UNL1        0.0000
     45 C          -0.9943   -5.1770    1.1709 C.3     1  UNL1        0.0000
     46 C          -2.3718   -4.7591    1.6929 C.3     1  UNL1        0.0000
     47 C          -2.3414   -3.4417    2.4712 C.3     1  UNL1        0.0000
     48 C          -1.2824   -3.4916    3.5764 C.3     1  UNL1        0.0000
     49 C          -3.7323    1.2600    2.1688 C.3     1  UNL1        0.0000
     50 C          -5.7942   -0.5984    3.2989 C.3     1  UNL1        0.0000
     51 C          -4.4486   -0.3259    3.9788 C.3     1  UNL1        0.0000
     52 C          -3.9639    1.0943    3.6703 C.3     1  UNL1        0.0000
     53 C          -5.7842   -0.2896    1.7980 C.3     1  UNL1        0.0000
     54 C          -5.0095    0.9647    1.3363 C.3     1  UNL1        0.0000
     55 C           1.9887    3.2547    2.8275 C.3     1  UNL1        0.0000
     56 C           2.0856    4.6285    2.1588 C.3     1  UNL1        0.0000
     57 C          -0.4870    3.5107    3.1820 C.3     1  UNL1        0.0000
     58 C           0.8571    3.2362    3.8603 C.3     1  UNL1        0.0000
     59 C           0.7510    5.1094    1.5817 C.3     1  UNL1        0.0000
     60 C          -0.5119    4.8749    2.4395 C.3     1  UNL1        0.0000
     61 C           7.6233   -1.2946    1.8803 C.3     1  UNL1        0.0000
     62 C           7.0845    0.1138    1.6126 C.3     1  UNL1        0.0000
     63 C           5.3175   -2.3004    1.7162 C.3     1  UNL1        0.0000
     64 C           6.7523   -2.3476    1.1844 C.3     1  UNL1        0.0000
     65 C           4.7170   -0.8969    1.6413 C.3     1  UNL1        0.0000
     66 C           5.6157    0.2818    2.0767 C.3     1  UNL1        0.0000
     67 H           3.5167    2.7342   -0.2360 H       1  UNL1        0.0000
     68 H           5.4341    1.1230   -3.7237 H       1  UNL1        0.0000
     69 H           3.8907    0.3802   -3.2592 H       1  UNL1        0.0000
     70 H           5.3387    0.0776   -2.2985 H       1  UNL1        0.0000
     71 H           3.5665    4.0479   -2.2408 H       1  UNL1        0.0000
     72 H           2.9028    2.8239   -3.3257 H       1  UNL1        0.0000
     73 H           4.5030    3.5157   -3.6503 H       1  UNL1        0.0000
     74 H          -2.7952    3.6963   -0.4633 H       1  UNL1        0.0000
     75 H          -2.6545    3.1164   -3.5286 H       1  UNL1        0.0000
     76 H          -3.2931    4.7285   -3.8982 H       1  UNL1        0.0000
     77 H          -3.9453    3.7981   -2.5357 H       1  UNL1        0.0000
     78 H          -0.2003    4.0662   -3.2730 H       1  UNL1        0.0000
     79 H           0.0369    5.5349   -2.3260 H       1  UNL1        0.0000
     80 H          -0.9121    5.5978   -3.8178 H       1  UNL1        0.0000
     81 H          -3.8088   -2.5715   -0.7539 H       1  UNL1        0.0000
     82 H          -5.7076   -3.4642   -1.9087 H       1  UNL1        0.0000
     83 H          -6.3382   -2.6851   -3.3729 H       1  UNL1        0.0000
     84 H          -6.6028   -1.9439   -1.7913 H       1  UNL1        0.0000
     85 H          -3.9196    0.2098   -3.3812 H       1  UNL1        0.0000
     86 H          -5.5665    0.2324   -2.7464 H       1  UNL1        0.0000
     87 H          -5.2326   -0.5778   -4.2820 H       1  UNL1        0.0000
     88 H           2.6320   -3.5178   -0.5099 H       1  UNL1        0.0000
     89 H           0.2772   -3.7637   -3.5345 H       1  UNL1        0.0000
     90 H           0.0029   -5.2907   -2.6948 H       1  UNL1        0.0000
     91 H           1.0642   -5.2467   -4.1099 H       1  UNL1        0.0000
     92 H           3.9420   -3.4607   -2.4851 H       1  UNL1        0.0000
     93 H           2.7095   -2.7315   -3.5179 H       1  UNL1        0.0000
     94 H           3.4155   -4.2974   -3.9581 H       1  UNL1        0.0000
     95 H           5.4337    2.4743   -1.6423 H       1  UNL1        0.0000
     96 H          -2.3864    5.6358   -1.8120 H       1  UNL1        0.0000
     97 H          -3.8810   -2.2943   -3.1640 H       1  UNL1        0.0000
     98 H           2.3877   -5.3751   -2.0098 H       1  UNL1        0.0000
     99 H           0.3698   -5.8581    2.7758 H       1  UNL1        0.0000
    100 H          -1.5138   -4.3055    4.2777 H       1  UNL1        0.0000
    101 H           0.3306   -2.8415    2.3207 H       1  UNL1        0.0000
    102 H          -3.0652   -4.6877    0.8506 H       1  UNL1        0.0000
    103 H          -2.7451   -5.5546    2.3493 H       1  UNL1        0.0000
    104 H          -3.3362   -3.2503    2.8822 H       1  UNL1        0.0000
    105 H          -2.1208   -2.6150    1.7849 H       1  UNL1        0.0000
    106 H          -1.2890   -2.5627    4.1590 H       1  UNL1        0.0000
    107 H           0.8896   -3.7244    3.7368 H       1  UNL1        0.0000
    108 H          -1.0359   -6.2312    0.8631 H       1  UNL1        0.0000
    109 H          -3.0306    1.3080    4.2038 H       1  UNL1        0.0000
    110 H          -3.3846    2.2646    1.9203 H       1  UNL1        0.0000
    111 H          -6.5614    0.0246    3.7737 H       1  UNL1        0.0000
    112 H          -6.0976   -1.6415    3.4316 H       1  UNL1        0.0000
    113 H          -3.7000   -1.0460    3.6238 H       1  UNL1        0.0000
    114 H          -4.5485   -0.4795    5.0587 H       1  UNL1        0.0000
    115 H          -4.7041    1.8249    4.0240 H       1  UNL1        0.0000
    116 H          -2.9429    0.5659    1.8586 H       1  UNL1        0.0000
    117 H          -6.8243   -0.1999    1.4553 H       1  UNL1        0.0000
    118 H          -5.6383    1.8574    1.2996 H       1  UNL1        0.0000
    119 H           2.4211    5.3643    2.8997 H       1  UNL1        0.0000
    120 H           2.8357    4.6154    1.3633 H       1  UNL1        0.0000
    121 H           0.8128    2.2647    4.3666 H       1  UNL1        0.0000
    122 H           2.9506    3.0157    3.2905 H       1  UNL1        0.0000
    123 H          -0.6755    2.7142    2.4520 H       1  UNL1        0.0000
    124 H          -1.3183    3.4910    3.8931 H       1  UNL1        0.0000
    125 H           1.0489    3.9890    4.6378 H       1  UNL1        0.0000
    126 H           1.8038    2.4873    2.0665 H       1  UNL1        0.0000
    127 H           0.8261    6.1839    1.3634 H       1  UNL1        0.0000
    128 H          -0.7054    5.6853    3.1460 H       1  UNL1        0.0000
    129 H           7.6972    0.8813    2.0944 H       1  UNL1        0.0000
    130 H           7.1383    0.3026    0.5322 H       1  UNL1        0.0000
    131 H           6.7516   -2.1613    0.1018 H       1  UNL1        0.0000
    132 H           7.6404   -1.4894    2.9615 H       1  UNL1        0.0000
    133 H           4.6652   -2.9971    1.1822 H       1  UNL1        0.0000
    134 H           5.3155   -2.6168    2.7661 H       1  UNL1        0.0000
    135 H           7.1677   -3.3499    1.3309 H       1  UNL1        0.0000
    136 H           8.6597   -1.3585    1.5314 H       1  UNL1        0.0000
    137 H           3.7995   -0.8716    2.2470 H       1  UNL1        0.0000
    138 H           5.5802    0.4655    3.1529 H       1  UNL1        0.0000
    139 O          -4.0273    1.3337   -0.8821 O.2     1  UNL1        0.0000
    140 O          -5.2132   -2.5959    1.1351 O.2     1  UNL1        0.0000
    141 O           1.1025    4.0009   -0.5901 O.2     1  UNL1        0.0000
    142 O          -2.8247    4.7805    1.6052 O.2     1  UNL1        0.0000
    143 O           3.7689   -1.1545   -0.6173 O.2     1  UNL1        0.0000
    144 O           5.0920    2.6434    1.5750 O.2     1  UNL1        0.0000
    145 O          -1.2298   -3.9017   -0.9235 O.2     1  UNL1        0.0000
    146 O           2.5673   -4.8104    1.4490 O.2     1  UNL1        0.0000
@<TRIPOS>BOND
     1     1     7    1
     2     2    14    1
     3     2    10    1
     4     2     8    1
     5     2     1    1
     6     3    31    1
     7     3     9    1
     8     4    39    1
     9     4    13    1
    10     5    35    1
    11     5    11    1
    12     6    27    1
    13     6     7    1
    14     8     6    1
    15     9     1    1
    16    10     3    1
    17    11     1    1
    18    12     2    1
    19    12     5    1
    20    13     1    1
    21    14     4    1
    22    15    20   am
    23    15    19   am
    24    16    21   am
    25    16    22   am
    26    17    23   am
    27    17    24   am
    28    18    26   am
    29    19   144    2
    30    19    66    1
    31    20    65    1
    32    21    59    1
    33    22   142    2
    34    22    60    1
    35    23    54    1
    36    24   140    2
    37    24    53    1
    38    25    18   am
    39    25    45    1
    40    26   146    2
    41    26    44    1
    42    27    67    1
    43    27    15    1
    44    28    95    1
    45    28    27    1
    46    29    70    1
    47    29    28    1
    48    30    71    1
    49    30    28    1
    50    31    74    1
    51    31    16    1
    52    32    96    1
    53    32    31    1
    54    33    77    1
    55    33    32    1
    56    34    79    1
    57    34    32    1
    58    35    81    1
    59    35    17    1
    60    36    37    1
    61    36    35    1
    62    37    82    1
    63    37    84    1
    64    38    86    1
    65    38    36    1
    66    39    88    1
    67    39    18    1
    68    40    98    1
    69    40    39    1
    70    41    90    1
    71    41    40    1
    72    42    92    1
    73    42    40    1
    74    43    48    1
    75    43   107    1
    76    44    99    1
    77    44    43    1
    78    45   108    1
    79    45    46    1
    80    45    44    1
    81    46   103    1
    82    46    47    1
    83    47   104    1
    84    47    48    1
    85    48   106    1
    86    48   100    1
    87    49    52    1
    88    50   112    1
    89    50   111    1
    90    50    51    1
    91    51   114    1
    92    52    51    1
    93    52   115    1
    94    52   109    1
    95    53   117    1
    96    53    50    1
    97    54   118    1
    98    54    53    1
    99    54    49    1
   100    55   122    1
   101    55    58    1
   102    56    55    1
   103    56   119    1
   104    57    58    1
   105    57   124    1
   106    58   121    1
   107    58   125    1
   108    59   127    1
   109    59    56    1
   110    59    60    1
   111    60   128    1
   112    60    57    1
   113    61   132    1
   114    62    61    1
   115    62    66    1
   116    62   129    1
   117    63   134    1
   118    64   135    1
   119    64    63    1
   120    64    61    1
   121    65    63    1
   122    65    66    1
   123    65   137    1
   124    66   138    1
   125    68    29    1
   126    69    29    1
   127    72    30    1
   128    73    30    1
   129    75    33    1
   130    76    33    1
   131    78    34    1
   132    80    34    1
   133    83    37    1
   134    85    38    1
   135    87    38    1
   136    89    41    1
   137    91    41    1
   138    93    42    1
   139    94    42    1
   140    97    36    1
   141   101    43    1
   142   102    46    1
   143   105    47    1
   144   110    49    1
   145   113    51    1
   146   116    49    1
   147   120    56    1
   148   123    57    1
   149   126    55    1
   150   130    62    1
   151   131    64    1
   152   133    63    1
   153   136    61    1
   154   139    23    2
   155   141    21    2
   156   143    20    2
   157   145    25    2
