@<TRIPOS>MOLECULE
RhRh_ACyPropyl4_5
 102 117 0 0 0
SMALL
GASTEIGER

@<TRIPOS>ATOM
      1 Rh          0.8192   -0.0001   -0.8739 Rh      1  UNL1        0.0000
      2 Rh         -0.8194   -0.0000    0.8736 Rh      1  UNL1        0.0000
      3 C           1.2780    1.9645    1.1768 C.3     1  UNL1        0.0000
      4 C          -1.2778    1.9648   -1.1769 C.3     1  UNL1        0.0000
      5 C          -1.2781   -1.9649   -1.1768 C.3     1  UNL1        0.0000
      6 C           1.2776   -1.9650    1.1767 C.3     1  UNL1        0.0000
      7 O          -0.2600    1.5029   -1.7839 O.3     1  UNL1        0.0000
      8 O          -1.8168    1.4789   -0.1302 O.3     1  UNL1        0.0000
      9 O          -0.2600   -1.5033   -1.7836 O.3     1  UNL1        0.0000
     10 O          -1.8174   -1.4785   -0.1305 O.3     1  UNL1        0.0000
     11 O           0.2595   -1.5034    1.7834 O.3     1  UNL1        0.0000
     12 O           1.8169   -1.4787    0.1303 O.3     1  UNL1        0.0000
     13 O           0.2601    1.5027    1.7837 O.3     1  UNL1        0.0000
     14 O           1.8169    1.4786    0.1300 O.3     1  UNL1        0.0000
     15 N          -3.0896    3.6094   -1.0534 N.am    1  UNL1        0.0000
     16 N          -3.0905   -3.6088   -1.0535 N.am    1  UNL1        0.0000
     17 N           3.0899   -3.6090    1.0536 N.am    1  UNL1        0.0000
     18 N           3.0902    3.6086    1.0534 N.am    1  UNL1        0.0000
     19 C          -1.8783    3.2263   -1.7035 C.3     1  UNL1        0.0000
     20 C          -0.9151    4.3300   -2.1249 C.3     1  UNL1        0.0000
     21 C          -1.6881    3.5888   -3.1616 C.3     1  UNL1        0.0000
     22 C          -3.1153    4.1996    0.2257 C.2     1  UNL1        0.0000
     23 C          -4.5411    4.1569    0.6571 C.ar    1  UNL1        0.0000
     24 C          -5.1375    4.6392    1.8120 C.ar    1  UNL1        0.0000
     25 C          -6.5160    4.4409    1.9556 C.ar    1  UNL1        0.0000
     26 C          -7.2584    3.7815    0.9677 C.ar    1  UNL1        0.0000
     27 C          -6.6463    3.2991   -0.1955 C.ar    1  UNL1        0.0000
     28 C          -5.2811    3.5002   -0.3275 C.ar    1  UNL1        0.0000
     29 C          -4.3537    3.0967   -1.4227 C.2     1  UNL1        0.0000
     30 C          -1.8788   -3.2263   -1.7032 C.3     1  UNL1        0.0000
     31 C          -1.6878   -3.5896   -3.1610 C.3     1  UNL1        0.0000
     32 C          -0.9157   -4.3305   -2.1235 C.3     1  UNL1        0.0000
     33 C          -3.1172   -4.1989    0.2256 C.2     1  UNL1        0.0000
     34 C          -4.5432   -4.1559    0.6560 C.ar    1  UNL1        0.0000
     35 C          -5.1405   -4.6379    1.8106 C.ar    1  UNL1        0.0000
     36 C          -6.5191   -4.4393    1.9532 C.ar    1  UNL1        0.0000
     37 C          -7.2607   -3.7800    0.9647 C.ar    1  UNL1        0.0000
     38 C          -6.6477   -3.2979   -0.1982 C.ar    1  UNL1        0.0000
     39 C          -5.2825   -3.4992   -0.3292 C.ar    1  UNL1        0.0000
     40 C          -4.3543   -3.0960   -1.4239 C.2     1  UNL1        0.0000
     41 C           1.8783   -3.2264    1.7032 C.3     1  UNL1        0.0000
     42 C           0.9151   -4.3305    2.1238 C.3     1  UNL1        0.0000
     43 C           1.6873   -3.5894    3.1611 C.3     1  UNL1        0.0000
     44 C           4.3537   -3.0961    1.4238 C.2     1  UNL1        0.0000
     45 C           5.2819   -3.4994    0.3292 C.ar    1  UNL1        0.0000
     46 C           6.6471   -3.2980    0.1981 C.ar    1  UNL1        0.0000
     47 C           7.2601   -3.7804   -0.9647 C.ar    1  UNL1        0.0000
     48 C           6.5185   -4.4399   -1.9530 C.ar    1  UNL1        0.0000
     49 C           5.1399   -4.6386   -1.8103 C.ar    1  UNL1        0.0000
     50 C           4.5427   -4.1564   -0.6559 C.ar    1  UNL1        0.0000
     51 C           3.1166   -4.1993   -0.2254 C.2     1  UNL1        0.0000
     52 C           1.8790    3.2257    1.7036 C.3     1  UNL1        0.0000
     53 C           1.6888    3.5880    3.1618 C.3     1  UNL1        0.0000
     54 C           0.9161    4.3296    2.1252 C.3     1  UNL1        0.0000
     55 C           4.3543    3.0956    1.4227 C.2     1  UNL1        0.0000
     56 C           5.2817    3.4990    0.3275 C.ar    1  UNL1        0.0000
     57 C           6.6469    3.2977    0.1955 C.ar    1  UNL1        0.0000
     58 C           7.2591    3.7802   -0.9676 C.ar    1  UNL1        0.0000
     59 C           6.5169    4.4399   -1.9554 C.ar    1  UNL1        0.0000
     60 C           5.1384    4.6385   -1.8117 C.ar    1  UNL1        0.0000
     61 C           4.5419    4.1562   -0.6569 C.ar    1  UNL1        0.0000
     62 C           3.1161    4.1990   -0.2256 C.2     1  UNL1        0.0000
     63 H          -1.2275    5.3323   -1.8569 H       1  UNL1        0.0000
     64 H           0.1389    4.1229   -1.9882 H       1  UNL1        0.0000
     65 H          -1.1719    2.8482   -3.7605 H       1  UNL1        0.0000
     66 H          -2.5354    4.0693   -3.6355 H       1  UNL1        0.0000
     67 H          -7.2079    2.7835   -0.9669 H       1  UNL1        0.0000
     68 H          -2.5350   -4.0701   -3.6352 H       1  UNL1        0.0000
     69 H          -1.1711   -2.8494   -3.7599 H       1  UNL1        0.0000
     70 H           0.1384   -4.1237   -1.9864 H       1  UNL1        0.0000
     71 H          -1.2284   -5.3327   -1.8553 H       1  UNL1        0.0000
     72 H          -4.5537   -5.1444    2.5691 H       1  UNL1        0.0000
     73 H          -8.3277   -3.6399    1.1059 H       1  UNL1        0.0000
     74 H          -7.2087   -2.7822   -0.9701 H       1  UNL1        0.0000
     75 H           1.2279   -5.3327    1.8557 H       1  UNL1        0.0000
     76 H          -0.1389   -4.1237    1.9866 H       1  UNL1        0.0000
     77 H           1.1706   -2.8491    3.7599 H       1  UNL1        0.0000
     78 H           2.5345   -4.0698    3.6354 H       1  UNL1        0.0000
     79 H           4.5531   -5.1453   -2.5688 H       1  UNL1        0.0000
     80 H           2.5364    4.0682    3.6357 H       1  UNL1        0.0000
     81 H           1.1725    2.8474    3.7605 H       1  UNL1        0.0000
     82 H          -0.1381    4.1228    1.9885 H       1  UNL1        0.0000
     83 H           1.2287    5.3319    1.8574 H       1  UNL1        0.0000
     84 H           7.2084    2.7818    0.9668 H       1  UNL1        0.0000
     85 H           7.0205    4.8004   -2.8467 H       1  UNL1        0.0000
     86 H           4.5511    5.1454   -2.5697 H       1  UNL1        0.0000
     87 O           4.5902    2.4667    2.4308 O.2     1  UNL1        0.0000
     88 O           2.1566    4.6453   -0.8198 O.2     1  UNL1        0.0000
     89 O           4.5889   -2.4673    2.4321 O.2     1  UNL1        0.0000
     90 O           2.1575   -4.6455   -0.8203 O.2     1  UNL1        0.0000
     91 O          -2.1581   -4.6449    0.8206 O.2     1  UNL1        0.0000
     92 O          -4.5895   -2.4675   -2.4323 O.2     1  UNL1        0.0000
     93 O          -2.1557    4.6455    0.8200 O.2     1  UNL1        0.0000
     94 O          -4.5897    2.4680   -2.4309 O.2     1  UNL1        0.0000
     95 H          -4.5501    5.1458    2.5701 H       1  UNL1        0.0000
     96 H          -7.0195    4.8013    2.8470 H       1  UNL1        0.0000
     97 H          -8.3253    3.6416    1.1097 H       1  UNL1        0.0000
     98 H          -7.0233   -4.7995    2.8443 H       1  UNL1        0.0000
     99 H           7.2081   -2.7822    0.9698 H       1  UNL1        0.0000
    100 H           8.3271   -3.6402   -1.1060 H       1  UNL1        0.0000
    101 H           7.0227   -4.8003   -2.8441 H       1  UNL1        0.0000
    102 H           8.3260    3.6401   -1.1096 H       1  UNL1        0.0000
@<TRIPOS>BOND
     1     1    14    1
     2     1    12    1
     3     1     2    1
     4     2    11    1
     5     2    13    1
     6     3    52    1
     7     3    13    1
     8     4     8    1
     9     5    10    1
    10     6    41    1
    11     6    11    1
    12     7     4    1
    13     7     1    1
    14     8     2    1
    15     9     5    1
    16     9     1    1
    17    10     2    1
    18    12     6    1
    19    14     3    1
    20    15    22   am
    21    16    33   am
    22    17    44   am
    23    17    41    1
    24    18    55   am
    25    18    52    1
    26    19     4    1
    27    19    15    1
    28    20    64    1
    29    20    63    1
    30    20    19    1
    31    21    20    1
    32    21    19    1
    33    22    23    1
    34    22    93    2
    35    23    24   ar
    36    24    25   ar
    37    24    95    1
    38    25    96    1
    39    26    97    1
    40    26    25   ar
    41    27    26   ar
    42    28    27   ar
    43    28    23   ar
    44    29    15   am
    45    29    28    1
    46    30     5    1
    47    30    16    1
    48    31    32    1
    49    31    30    1
    50    32    70    1
    51    32    71    1
    52    32    30    1
    53    33    34    1
    54    33    91    2
    55    34    35   ar
    56    35    36   ar
    57    35    72    1
    58    36    98    1
    59    37    73    1
    60    37    36   ar
    61    38    37   ar
    62    39    38   ar
    63    39    34   ar
    64    40    16   am
    65    40    39    1
    66    41    42    1
    67    41    43    1
    68    42    43    1
    69    43    78    1
    70    43    77    1
    71    44    89    2
    72    45    44    1
    73    46    45   ar
    74    46    99    1
    75    47    46   ar
    76    48    49   ar
    77    48    47   ar
    78    49    50   ar
    79    50    51    1
    80    50    45   ar
    81    51    17   am
    82    52    54    1
    83    52    53    1
    84    53    80    1
    85    53    81    1
    86    54    53    1
    87    55    87    2
    88    56    55    1
    89    57    56   ar
    90    57    84    1
    91    58    57   ar
    92    59    60   ar
    93    59    58   ar
    94    60    61   ar
    95    61    62    1
    96    61    56   ar
    97    62    18   am
    98    65    21    1
    99    66    21    1
   100    67    27    1
   101    68    31    1
   102    69    31    1
   103    74    38    1
   104    75    42    1
   105    76    42    1
   106    79    49    1
   107    82    54    1
   108    83    54    1
   109    85    59    1
   110    86    60    1
   111    88    62    2
   112    90    51    2
   113    92    40    2
   114    94    29    2
   115   100    47    1
   116   101    48    1
   117   102    58    1
