@<TRIPOS>MOLECULE
RhRh_S-PTV4_10_sp
 122 133 0 0 0
SMALL
GASTEIGER

@<TRIPOS>ATOM
      1 Rh         -0.5501   -0.7036    1.0611 Rh      1  UNL1        0.0000
      2 Rh          0.5501   -0.7037   -1.0608 Rh      1  UNL1        0.0000
      3 C           1.7006    1.1056    0.8592 C.3     1  UNL1        0.0000
      4 C          -1.6742   -2.5388   -0.8690 C.3     1  UNL1        0.0000
      5 C           1.6742   -2.5388    0.8695 C.3     1  UNL1        0.0000
      6 C          -1.7004    1.1056   -0.8591 C.3     1  UNL1        0.0000
      7 O           0.7764   -2.1581    1.6768 O.3     1  UNL1        0.0000
      8 O           1.8108   -2.1625   -0.3375 O.3     1  UNL1        0.0000
      9 O           0.7841    0.7468    1.6594 O.3     1  UNL1        0.0000
     10 O           1.8420    0.7073   -0.3400 O.3     1  UNL1        0.0000
     11 O          -1.8418    0.7075    0.3402 O.3     1  UNL1        0.0000
     12 O          -0.7839    0.7467   -1.6592 O.3     1  UNL1        0.0000
     13 O          -1.8108   -2.1624    0.3379 O.3     1  UNL1        0.0000
     14 O          -0.7765   -2.1581   -1.6764 O.3     1  UNL1        0.0000
     15 N           4.0218   -3.1221    0.9744 N.am    1  UNL1        0.0000
     16 N           3.3454    2.8285    0.3156 N.am    1  UNL1        0.0000
     17 N          -3.3452    2.8286   -0.3156 N.am    1  UNL1        0.0000
     18 N          -4.0218   -3.1219   -0.9741 N.am    1  UNL1        0.0000
     19 C           4.4667   -1.8018    1.1108 C.2     1  UNL1        0.0000
     20 C           5.8038   -1.7513    0.4610 C.ar    1  UNL1        0.0000
     21 C           6.6836   -0.6898    0.3149 C.ar    1  UNL1        0.0000
     22 C           7.8829   -0.9492   -0.3626 C.ar    1  UNL1        0.0000
     23 C           8.1742   -2.2219   -0.8672 C.ar    1  UNL1        0.0000
     24 C           7.2728   -3.2843   -0.7171 C.ar    1  UNL1        0.0000
     25 C           6.0893   -3.0222   -0.0467 C.ar    1  UNL1        0.0000
     26 C           4.9331   -3.9147    0.2499 C.2     1  UNL1        0.0000
     27 C           2.5841    3.5202   -0.6472 C.2     1  UNL1        0.0000
     28 C           3.5717    4.0758   -1.6162 C.ar    1  UNL1        0.0000
     29 C           3.3710    4.8416   -2.7531 C.ar    1  UNL1        0.0000
     30 C           4.5066    5.2225   -3.4796 C.ar    1  UNL1        0.0000
     31 C           5.7899    4.8430   -3.0673 C.ar    1  UNL1        0.0000
     32 C           5.9804    4.0688   -1.9157 C.ar    1  UNL1        0.0000
     33 C           4.8502    3.6963   -1.2055 C.ar    1  UNL1        0.0000
     34 C           4.7141    2.8752    0.0307 C.2     1  UNL1        0.0000
     35 C          -2.5840    3.5204    0.6472 C.2     1  UNL1        0.0000
     36 C          -3.5716    4.0760    1.6161 C.ar    1  UNL1        0.0000
     37 C          -3.3710    4.8420    2.7529 C.ar    1  UNL1        0.0000
     38 C          -4.5066    5.2229    3.4793 C.ar    1  UNL1        0.0000
     39 C          -5.7899    4.8433    3.0671 C.ar    1  UNL1        0.0000
     40 C          -5.9803    4.0689    1.9155 C.ar    1  UNL1        0.0000
     41 C          -4.8500    3.6965    1.2054 C.ar    1  UNL1        0.0000
     42 C          -4.7139    2.8752   -0.0308 C.2     1  UNL1        0.0000
     43 C          -4.9335   -3.9145   -0.2500 C.2     1  UNL1        0.0000
     44 C          -6.0897   -3.0220    0.0461 C.ar    1  UNL1        0.0000
     45 C          -7.2735   -3.2841    0.7160 C.ar    1  UNL1        0.0000
     46 C          -8.1750   -2.2217    0.8658 C.ar    1  UNL1        0.0000
     47 C          -7.8835   -0.9490    0.3612 C.ar    1  UNL1        0.0000
     48 C          -6.6838   -0.6896   -0.3158 C.ar    1  UNL1        0.0000
     49 C          -5.8040   -1.7511   -0.4615 C.ar    1  UNL1        0.0000
     50 C          -4.4667   -1.8017   -1.1109 C.2     1  UNL1        0.0000
     51 C           2.6891   -3.5921    1.3340 C.3     1  UNL1        0.0000
     52 C           2.5939   -4.0827    2.7946 C.3     1  UNL1        0.0000
     53 C           2.8193   -2.9930    3.8488 C.3     1  UNL1        0.0000
     54 C           1.2826   -4.8447    3.0308 C.3     1  UNL1        0.0000
     55 C           2.8080    2.0113    1.3980 C.3     1  UNL1        0.0000
     56 C           2.5131    2.8211    2.6812 C.3     1  UNL1        0.0000
     57 C           2.4159    1.9011    3.9071 C.3     1  UNL1        0.0000
     58 C           1.3054    3.7564    2.5736 C.3     1  UNL1        0.0000
     59 C          -2.8078    2.0113   -1.3979 C.3     1  UNL1        0.0000
     60 C          -2.5130    2.8210   -2.6813 C.3     1  UNL1        0.0000
     61 C          -1.3051    3.7561   -2.5738 C.3     1  UNL1        0.0000
     62 C          -2.4159    1.9008   -3.9071 C.3     1  UNL1        0.0000
     63 C          -2.6891   -3.5921   -1.3334 C.3     1  UNL1        0.0000
     64 C          -2.5938   -4.0830   -2.7939 C.3     1  UNL1        0.0000
     65 C          -2.8191   -2.9936   -3.8483 C.3     1  UNL1        0.0000
     66 C          -1.2824   -4.8449   -3.0298 C.3     1  UNL1        0.0000
     67 H           9.1126   -2.3864   -1.3875 H       1  UNL1        0.0000
     68 H           7.4830   -4.2730   -1.1102 H       1  UNL1        0.0000
     69 H           6.6496    5.1542   -3.6522 H       1  UNL1        0.0000
     70 H           6.9690    3.7670   -1.5870 H       1  UNL1        0.0000
     71 H          -4.3925    5.8214    4.3775 H       1  UNL1        0.0000
     72 H          -6.6496    5.1545    3.6520 H       1  UNL1        0.0000
     73 H          -6.9689    3.7670    1.5868 H       1  UNL1        0.0000
     74 H          -8.5996   -0.1452    0.4996 H       1  UNL1        0.0000
     75 H          -6.4421    0.2973   -0.6949 H       1  UNL1        0.0000
     76 H           2.5257   -4.4611    0.6856 H       1  UNL1        0.0000
     77 H           2.7905   -3.4401    4.8477 H       1  UNL1        0.0000
     78 H           2.0471   -2.2242    3.7899 H       1  UNL1        0.0000
     79 H           3.7886   -2.5050    3.7276 H       1  UNL1        0.0000
     80 H           1.1363   -5.6300    2.2806 H       1  UNL1        0.0000
     81 H           0.4241   -4.1711    2.9949 H       1  UNL1        0.0000
     82 H           1.3010   -5.3246    4.0138 H       1  UNL1        0.0000
     83 H           3.6133    1.3070    1.6343 H       1  UNL1        0.0000
     84 H           1.5009    1.3073    3.8789 H       1  UNL1        0.0000
     85 H           2.4112    2.5018    4.8222 H       1  UNL1        0.0000
     86 H           3.2651    1.2117    3.9568 H       1  UNL1        0.0000
     87 H           0.3852    3.1971    2.3991 H       1  UNL1        0.0000
     88 H           1.4071    4.4660    1.7507 H       1  UNL1        0.0000
     89 H           1.1981    4.3247    3.5043 H       1  UNL1        0.0000
     90 H          -3.6131    1.3069   -1.6342 H       1  UNL1        0.0000
     91 H          -1.4067    4.4659   -1.7510 H       1  UNL1        0.0000
     92 H          -1.1978    4.3242   -3.5046 H       1  UNL1        0.0000
     93 H          -0.3849    3.1967   -2.3993 H       1  UNL1        0.0000
     94 H          -3.2651    1.2115   -3.9566 H       1  UNL1        0.0000
     95 H          -1.5009    1.3071   -3.8789 H       1  UNL1        0.0000
     96 H          -2.4114    2.5015   -4.8222 H       1  UNL1        0.0000
     97 H          -2.5259   -4.4610   -0.6849 H       1  UNL1        0.0000
     98 H          -2.0470   -2.2247   -3.7895 H       1  UNL1        0.0000
     99 H          -3.7885   -2.5056   -3.7274 H       1  UNL1        0.0000
    100 H          -2.7902   -3.4408   -4.8472 H       1  UNL1        0.0000
    101 H          -1.1360   -5.6300   -2.2795 H       1  UNL1        0.0000
    102 H          -0.4239   -4.1712   -2.9940 H       1  UNL1        0.0000
    103 H          -1.3006   -5.3250   -4.0127 H       1  UNL1        0.0000
    104 H           3.4147   -4.8079    2.8774 H       1  UNL1        0.0000
    105 H           3.4152    3.4351    2.8085 H       1  UNL1        0.0000
    106 H          -3.4150    3.4350   -2.8085 H       1  UNL1        0.0000
    107 H          -3.4145   -4.8083   -2.8767 H       1  UNL1        0.0000
    108 O           5.5908    2.3399    0.6858 O.2     1  UNL1        0.0000
    109 O           1.3774    3.6235   -0.6523 O.2     1  UNL1        0.0000
    110 O          -1.3773    3.6238    0.6522 O.2     1  UNL1        0.0000
    111 O          -5.5905    2.3399   -0.6858 O.2     1  UNL1        0.0000
    112 O           3.8409   -0.9134    1.6593 O.2     1  UNL1        0.0000
    113 O           4.7554   -5.0771   -0.0499 O.2     1  UNL1        0.0000
    114 O          -4.7559   -5.0770    0.0499 O.2     1  UNL1        0.0000
    115 O          -3.8407   -0.9134   -1.6592 O.2     1  UNL1        0.0000
    116 H           6.4420    0.2972    0.6942 H       1  UNL1        0.0000
    117 H           8.5990   -0.1454   -0.5013 H       1  UNL1        0.0000
    118 H           2.3705    5.1259   -3.0608 H       1  UNL1        0.0000
    119 H           4.3925    5.8210   -4.3778 H       1  UNL1        0.0000
    120 H          -2.3705    5.1264    3.0606 H       1  UNL1        0.0000
    121 H          -9.1136   -2.3862    1.3856 H       1  UNL1        0.0000
    122 H          -7.4839   -4.2728    1.1091 H       1  UNL1        0.0000
@<TRIPOS>BOND
     1     1     9    1
     2     1     7    1
     3     2    10    1
     4     2     8    1
     5     2     1    1
     6     3    55    1
     7     3     9    1
     8     4    63    1
     9     4    13    1
    10     5    51    1
    11     5     7    1
    12     6    59    1
    13     6    11    1
    14     8     5    1
    15    10     3    1
    16    11     1    1
    17    12     2    1
    18    12     6    1
    19    13     1    1
    20    14     2    1
    21    14     4    1
    22    15    19   am
    23    15    51    1
    24    16    55    1
    25    17    42   am
    26    17    35   am
    27    18    43   am
    28    19   112    2
    29    20    19    1
    30    21    20   ar
    31    21   116    1
    32    22    21   ar
    33    23    24   ar
    34    23    22   ar
    35    24    25   ar
    36    25    26    1
    37    25    20   ar
    38    26    15   am
    39    27    16   am
    40    28    33   ar
    41    28    27    1
    42    29    28   ar
    43    30    31   ar
    44    30    29   ar
    45    31    32   ar
    46    32    70    1
    47    32    33   ar
    48    33    34    1
    49    34    16   am
    50    34   108    2
    51    35   110    2
    52    35    36    1
    53    36    37   ar
    54    37   120    1
    55    37    38   ar
    56    38    71    1
    57    39    38   ar
    58    39    72    1
    59    40    39   ar
    60    41    36   ar
    61    41    40   ar
    62    42    41    1
    63    43    44    1
    64    43   114    2
    65    44    45   ar
    66    45    46   ar
    67    45   122    1
    68    46   121    1
    69    47    74    1
    70    47    46   ar
    71    48    47   ar
    72    49    48   ar
    73    49    44   ar
    74    50    18   am
    75    50    49    1
    76    51    76    1
    77    51    52    1
    78    52   104    1
    79    52    54    1
    80    52    53    1
    81    53    77    1
    82    54    82    1
    83    55    83    1
    84    55    56    1
    85    56   105    1
    86    56    57    1
    87    57    86    1
    88    57    85    1
    89    58    56    1
    90    58    89    1
    91    59    90    1
    92    59    17    1
    93    60    61    1
    94    60    59    1
    95    61    93    1
    96    61    91    1
    97    62    95    1
    98    62    60    1
    99    63    18    1
   100    63    97    1
   101    64    63    1
   102    65    98    1
   103    65    99    1
   104    65    64    1
   105    66   102    1
   106    66    64    1
   107    66   101    1
   108    67    23    1
   109    68    24    1
   110    69    31    1
   111    73    40    1
   112    75    48    1
   113    78    53    1
   114    79    53    1
   115    80    54    1
   116    81    54    1
   117    84    57    1
   118    87    58    1
   119    88    58    1
   120    92    61    1
   121    94    62    1
   122    96    62    1
   123   100    65    1
   124   103    66    1
   125   106    60    1
   126   107    64    1
   127   109    27    2
   128   111    42    2
   129   113    26    2
   130   115    50    2
   131   117    22    1
   132   118    29    1
   133   119    30    1
