@<TRIPOS>MOLECULE
RhRh_ACyPropyl4_11
 102 117 0 0 0
SMALL
GASTEIGER

@<TRIPOS>ATOM
      1 Rh         -1.4679   -0.5872    1.2662 Rh      1  UNL1        0.0000
      2 Rh         -0.0754   -0.0619   -0.6092 Rh      1  UNL1        0.0000
      3 C           1.1619    0.4346    1.9271 C.3     1  UNL1        0.0000
      4 C           0.2616   -2.7378    0.4068 C.3     1  UNL1        0.0000
      5 C          -2.7212   -0.9666   -1.2950 C.3     1  UNL1        0.0000
      6 C          -1.6929    2.1250    0.3505 C.3     1  UNL1        0.0000
      7 O          -0.6966   -2.4980    1.2101 O.3     1  UNL1        0.0000
      8 O           0.7611   -1.9255   -0.4317 O.3     1  UNL1        0.0000
      9 O          -2.9515   -1.0877   -0.0480 O.3     1  UNL1        0.0000
     10 O          -1.5956   -0.7367   -1.8357 O.3     1  UNL1        0.0000
     11 O          -0.9158    1.8049   -0.6066 O.3     1  UNL1        0.0000
     12 O          -2.1713    1.3403    1.2270 O.3     1  UNL1        0.0000
     13 O           1.3366    0.6191    0.6791 O.3     1  UNL1        0.0000
     14 O           0.1044    0.0046    2.4834 O.3     1  UNL1        0.0000
     15 N           2.1610   -4.2107   -0.1072 N.am    1  UNL1        0.0000
     16 N          -5.1528   -1.0876   -1.4909 N.am    1  UNL1        0.0000
     17 N          -0.9744    4.4022   -0.0518 N.am    1  UNL1        0.0000
     18 N           3.5469    0.8949    2.0189 N.am    1  UNL1        0.0000
     19 C           0.8313   -4.1253    0.4064 C.3     1  UNL1        0.0000
     20 C           0.4140   -5.1054    1.4758 C.3     1  UNL1        0.0000
     21 C          -0.1450   -5.2558    0.0993 C.3     1  UNL1        0.0000
     22 C           3.3120   -4.1645    0.7149 C.2     1  UNL1        0.0000
     23 C           4.4586   -3.9980   -0.2236 C.ar    1  UNL1        0.0000
     24 C           5.8158   -3.9049    0.0422 C.ar    1  UNL1        0.0000
     25 C           6.6768   -3.7418   -1.0498 C.ar    1  UNL1        0.0000
     26 C           6.1795   -3.6770   -2.3590 C.ar    1  UNL1        0.0000
     27 C           4.8064   -3.7768   -2.6153 C.ar    1  UNL1        0.0000
     28 C           3.9630   -3.9371   -1.5257 C.ar    1  UNL1        0.0000
     29 C           2.4773   -4.0758   -1.4757 C.2     1  UNL1        0.0000
     30 C          -3.9105   -1.0853   -2.1944 C.3     1  UNL1        0.0000
     31 C          -3.8584   -0.3914   -3.5437 C.3     1  UNL1        0.0000
     32 C          -3.7881   -1.8799   -3.4812 C.3     1  UNL1        0.0000
     33 C          -5.5975    0.0708   -0.8190 C.2     1  UNL1        0.0000
     34 C          -6.7060   -0.3780    0.0663 C.ar    1  UNL1        0.0000
     35 C          -7.5286    0.3538    0.9089 C.ar    1  UNL1        0.0000
     36 C          -8.4862   -0.3528    1.6464 C.ar    1  UNL1        0.0000
     37 C          -8.6037   -1.7439    1.5334 C.ar    1  UNL1        0.0000
     38 C          -7.7675   -2.4736    0.6797 C.ar    1  UNL1        0.0000
     39 C          -6.8226   -1.7651   -0.0461 C.ar    1  UNL1        0.0000
     40 C          -5.7886   -2.2514   -1.0046 C.2     1  UNL1        0.0000
     41 C          -2.0394    3.5808    0.4386 C.3     1  UNL1        0.0000
     42 C          -2.8663    4.0744    1.6025 C.3     1  UNL1        0.0000
     43 C          -3.4819    4.0055    0.2401 C.3     1  UNL1        0.0000
     44 C           0.2989    4.2975    0.5582 C.2     1  UNL1        0.0000
     45 C           1.2498    4.9658   -0.3695 C.ar    1  UNL1        0.0000
     46 C           2.6151    5.1829   -0.2481 C.ar    1  UNL1        0.0000
     47 C           3.2551    5.8205   -1.3183 C.ar    1  UNL1        0.0000
     48 C           2.5461    6.2193   -2.4585 C.ar    1  UNL1        0.0000
     49 C           1.1689    5.9922   -2.5685 C.ar    1  UNL1        0.0000
     50 C           0.5409    5.3603   -1.5064 C.ar    1  UNL1        0.0000
     51 C          -0.8871    4.9561   -1.3469 C.2     1  UNL1        0.0000
     52 C           2.3490    0.7360    2.7884 C.3     1  UNL1        0.0000
     53 C           2.4342    0.0873    4.1564 C.3     1  UNL1        0.0000
     54 C           2.1538    1.5498    4.0508 C.3     1  UNL1        0.0000
     55 C           3.9812   -0.1756    1.1985 C.2     1  UNL1        0.0000
     56 C           4.8973    0.4239    0.1940 C.ar    1  UNL1        0.0000
     57 C           5.5988   -0.1741   -0.8418 C.ar    1  UNL1        0.0000
     58 C           6.3605    0.6633   -1.6655 C.ar    1  UNL1        0.0000
     59 C           6.4091    2.0461   -1.4470 C.ar    1  UNL1        0.0000
     60 C           5.6952    2.6378   -0.3979 C.ar    1  UNL1        0.0000
     61 C           4.9399    1.8022    0.4106 C.ar    1  UNL1        0.0000
     62 C           4.0472    2.1295    1.5595 C.2     1  UNL1        0.0000
     63 H           1.1833   -5.7892    1.8101 H       1  UNL1        0.0000
     64 H          -0.2271   -4.7042    2.2508 H       1  UNL1        0.0000
     65 H          -1.1737   -4.9639   -0.0796 H       1  UNL1        0.0000
     66 H           0.2365   -6.0381   -0.5463 H       1  UNL1        0.0000
     67 H           4.4073   -3.7309   -3.6228 H       1  UNL1        0.0000
     68 H          -4.7844    0.0743   -3.8598 H       1  UNL1        0.0000
     69 H          -2.9521    0.1640   -3.7500 H       1  UNL1        0.0000
     70 H          -2.8288   -2.3573   -3.6446 H       1  UNL1        0.0000
     71 H          -4.6557   -2.4678   -3.7535 H       1  UNL1        0.0000
     72 H          -7.4243    1.4303    0.9898 H       1  UNL1        0.0000
     73 H          -9.3542   -2.2630    2.1210 H       1  UNL1        0.0000
     74 H          -7.8444   -3.5515    0.5872 H       1  UNL1        0.0000
     75 H          -2.5843    5.0454    1.9935 H       1  UNL1        0.0000
     76 H          -3.1406    3.3284    2.3381 H       1  UNL1        0.0000
     77 H          -4.1814    3.2063    0.0189 H       1  UNL1        0.0000
     78 H          -3.6255    4.9175   -0.3253 H       1  UNL1        0.0000
     79 H           0.6077    6.2882   -3.4482 H       1  UNL1        0.0000
     80 H           3.4258   -0.2319    4.4556 H       1  UNL1        0.0000
     81 H           1.6228   -0.5841    4.4089 H       1  UNL1        0.0000
     82 H           1.1429    1.9023    4.2179 H       1  UNL1        0.0000
     83 H           2.9365    2.2634    4.2730 H       1  UNL1        0.0000
     84 H           5.5491   -1.2434   -1.0066 H       1  UNL1        0.0000
     85 H           7.0060    2.6679   -2.1068 H       1  UNL1        0.0000
     86 H           5.7189    3.7080   -0.2240 H       1  UNL1        0.0000
     87 O           3.6240   -1.3267    1.3208 O.2     1  UNL1        0.0000
     88 O           3.7977    3.2204    2.0316 O.2     1  UNL1        0.0000
     89 O           0.5095    3.7307    1.6102 O.2     1  UNL1        0.0000
     90 O          -1.7980    5.0749   -2.1383 O.2     1  UNL1        0.0000
     91 O          -5.1284    1.1814   -0.9618 O.2     1  UNL1        0.0000
     92 O          -5.5235   -3.3893   -1.3268 O.2     1  UNL1        0.0000
     93 O           3.3289   -4.2799    1.9195 O.2     1  UNL1        0.0000
     94 O           1.6868   -4.1009   -2.3933 O.2     1  UNL1        0.0000
     95 H           6.1832   -3.9482    1.0615 H       1  UNL1        0.0000
     96 H           7.7462   -3.6598   -0.8827 H       1  UNL1        0.0000
     97 H           6.8719   -3.5494   -3.1853 H       1  UNL1        0.0000
     98 H          -9.1474    0.1835    2.3194 H       1  UNL1        0.0000
     99 H           3.1538    4.8520    0.6332 H       1  UNL1        0.0000
    100 H           4.3231    6.0098   -1.2660 H       1  UNL1        0.0000
    101 H           3.0749    6.7086   -3.2705 H       1  UNL1        0.0000
    102 H           6.9194    0.2346   -2.4914 H       1  UNL1        0.0000
@<TRIPOS>BOND
     1     1    14    1
     2     2    11    1
     3     2     8    1
     4     2    13    1
     5     2     1    1
     6     3    14    1
     7     3    52    1
     8     4     7    1
     9     5     9    1
    10     6    41    1
    11     6    12    1
    12     7     1    1
    13     8     4    1
    14     9     1    1
    15    10     5    1
    16    10     2    1
    17    11     6    1
    18    12     1    1
    19    13     3    1
    20    15    19    1
    21    15    22   am
    22    16    40   am
    23    16    33   am
    24    17    41    1
    25    17    44   am
    26    18    52    1
    27    19     4    1
    28    19    20    1
    29    20    63    1
    30    20    64    1
    31    21    19    1
    32    21    20    1
    33    22    93    2
    34    23    24   ar
    35    23    22    1
    36    24    95    1
    37    25    96    1
    38    25    24   ar
    39    26    25   ar
    40    27    26   ar
    41    27    28   ar
    42    28    29    1
    43    28    23   ar
    44    29    15   am
    45    30    16    1
    46    30     5    1
    47    31    32    1
    48    31    30    1
    49    32    30    1
    50    33    34    1
    51    34    35   ar
    52    35    72    1
    53    35    36   ar
    54    36    98    1
    55    37    36   ar
    56    37    73    1
    57    38    37   ar
    58    39    34   ar
    59    39    38   ar
    60    40    39    1
    61    41    42    1
    62    42    75    1
    63    42    76    1
    64    43    41    1
    65    43    42    1
    66    44    89    2
    67    45    46   ar
    68    45    44    1
    69    46    99    1
    70    47   100    1
    71    47    46   ar
    72    48    47   ar
    73    49    48   ar
    74    49    50   ar
    75    50    51    1
    76    50    45   ar
    77    51    17   am
    78    52    54    1
    79    52    53    1
    80    53    81    1
    81    53    80    1
    82    54    53    1
    83    54    82    1
    84    54    83    1
    85    55    87    2
    86    55    18   am
    87    56    61   ar
    88    56    55    1
    89    57    56   ar
    90    58    59   ar
    91    58    57   ar
    92    59    60   ar
    93    60    86    1
    94    60    61   ar
    95    61    62    1
    96    62    18   am
    97    62    88    2
    98    65    21    1
    99    66    21    1
   100    67    27    1
   101    68    31    1
   102    69    31    1
   103    70    32    1
   104    71    32    1
   105    74    38    1
   106    77    43    1
   107    78    43    1
   108    79    49    1
   109    84    57    1
   110    85    59    1
   111    90    51    2
   112    91    33    2
   113    92    40    2
   114    94    29    2
   115    97    26    1
   116   101    48    1
   117   102    58    1
