@<TRIPOS>MOLECULE
RhRh_S-PhenTTL4_4_sp
 180 199 0 0 0
SMALL
GASTEIGER

@<TRIPOS>ATOM
      1 Rh         -0.6448   -1.2342   -2.6077 Rh      1  UNL1        0.0000
      2 Rh         -1.0158   -0.6776   -0.3123 Rh      1  UNL1        0.0000
      3 C           1.2454   -2.3949   -0.7566 C.3     1  UNL1        0.0000
      4 C          -2.8966    0.5293   -2.1282 C.3     1  UNL1        0.0000
      5 C           0.7406    1.1256   -1.7205 C.3     1  UNL1        0.0000
      6 C          -2.5073   -2.9722   -1.2611 C.3     1  UNL1        0.0000
      7 O          -2.3090   -0.0975   -3.0615 O.3     1  UNL1        0.0000
      8 O          -2.6240    0.4552   -0.8918 O.3     1  UNL1        0.0000
      9 O          -1.9003   -2.8515   -2.3667 O.3     1  UNL1        0.0000
     10 O          -2.2602   -2.3150   -0.2012 O.3     1  UNL1        0.0000
     11 O           1.0075   -2.3265   -2.0043 O.3     1  UNL1        0.0000
     12 O           0.5659   -1.8468    0.1593 O.3     1  UNL1        0.0000
     13 O           0.5095    0.4445   -2.7643 O.3     1  UNL1        0.0000
     14 O           0.2527    0.9173   -0.5668 O.3     1  UNL1        0.0000
     15 N          -3.9688    2.6283   -1.6046 N.am    1  UNL1        0.0000
     16 N          -4.5409   -3.5774   -0.1054 N.am    1  UNL1        0.0000
     17 N           3.5173   -2.6095    0.2796 N.am    1  UNL1        0.0000
     18 N           2.9233    1.9996   -1.0938 N.am    1  UNL1        0.0000
     19 C          -4.0761    1.4523   -2.4704 C.3     1  UNL1        0.0000
     20 C          -5.0132    3.0597   -0.7774 C.2     1  UNL1        0.0000
     21 C          -4.4261    4.0887    0.1338 C.ar    1  UNL1        0.0000
     22 C          -5.0630    4.8787    1.1322 C.ar    1  UNL1        0.0000
     23 C          -4.2269    5.7119    1.9424 C.ar    1  UNL1        0.0000
     24 C          -2.7793    5.7460    1.7310 C.ar    1  UNL1        0.0000
     25 C          -2.1926    4.9600    0.6668 C.ar    1  UNL1        0.0000
     26 C          -3.0805    4.1521   -0.1028 C.ar    1  UNL1        0.0000
     27 C          -2.7606    3.2390   -1.2384 C.2     1  UNL1        0.0000
     28 C          -4.3240    1.7907   -3.9684 C.3     1  UNL1        0.0000
     29 C          -4.7435    0.5017   -4.7013 C.3     1  UNL1        0.0000
     30 C          -5.4946    2.7896   -4.0401 C.3     1  UNL1        0.0000
     31 C          -3.0914    2.4138   -4.6420 C.3     1  UNL1        0.0000
     32 C          -3.6143   -4.0282   -1.1370 C.3     1  UNL1        0.0000
     33 C          -5.0517   -2.2730    0.0067 C.2     1  UNL1        0.0000
     34 C          -5.5777   -2.1559    1.3997 C.ar    1  UNL1        0.0000
     35 C          -6.1885   -1.0371    2.0375 C.ar    1  UNL1        0.0000
     36 C          -6.5705   -1.1925    3.4091 C.ar    1  UNL1        0.0000
     37 C          -6.3548   -2.4634    4.0934 C.ar    1  UNL1        0.0000
     38 C          -5.7277   -3.5524    3.4092 C.ar    1  UNL1        0.0000
     39 C          -5.3492   -3.3378    2.0522 C.ar    1  UNL1        0.0000
     40 C          -4.6347   -4.2564    1.1221 C.2     1  UNL1        0.0000
     41 C          -4.2898   -4.5274   -2.4510 C.3     1  UNL1        0.0000
     42 C          -5.4682   -5.4325   -2.0461 C.3     1  UNL1        0.0000
     43 C          -4.8057   -3.3826   -3.3383 C.3     1  UNL1        0.0000
     44 C          -3.2708   -5.3794   -3.2329 C.3     1  UNL1        0.0000
     45 C           2.3805   -3.3194   -0.3171 C.3     1  UNL1        0.0000
     46 C           3.5420   -1.5398    1.2043 C.2     1  UNL1        0.0000
     47 C           4.9781   -1.3575    1.5793 C.ar    1  UNL1        0.0000
     48 C           5.5453   -0.4046    2.4745 C.ar    1  UNL1        0.0000
     49 C           6.9566   -0.4784    2.6972 C.ar    1  UNL1        0.0000
     50 C           7.7530   -1.5002    2.0263 C.ar    1  UNL1        0.0000
     51 C           7.1362   -2.4100    1.1119 C.ar    1  UNL1        0.0000
     52 C           5.7305   -2.2823    0.9152 C.ar    1  UNL1        0.0000
     53 C           4.8298   -3.0481    0.0070 C.2     1  UNL1        0.0000
     54 C           1.8388   -4.4910    0.5787 C.3     1  UNL1        0.0000
     55 C           2.9005   -5.6037    0.6347 C.3     1  UNL1        0.0000
     56 C           1.5230   -4.0342    2.0116 C.3     1  UNL1        0.0000
     57 C           0.5635   -5.0528   -0.0809 C.3     1  UNL1        0.0000
     58 C           1.6899    2.3261   -1.8070 C.3     1  UNL1        0.0000
     59 C           3.7507    0.8962   -1.3488 C.2     1  UNL1        0.0000
     60 C           5.0648    1.2203   -0.7186 C.ar    1  UNL1        0.0000
     61 C           6.3167    0.5656   -0.8922 C.ar    1  UNL1        0.0000
     62 C           7.4479    1.1354   -0.2287 C.ar    1  UNL1        0.0000
     63 C           7.2832    2.3085    0.6221 C.ar    1  UNL1        0.0000
     64 C           6.0046    2.9412    0.7426 C.ar    1  UNL1        0.0000
     65 C           4.9220    2.3655    0.0173 C.ar    1  UNL1        0.0000
     66 C           3.5360    2.8904   -0.1948 C.2     1  UNL1        0.0000
     67 C           1.9573    2.9445   -3.2161 C.3     1  UNL1        0.0000
     68 C           2.7184    2.0041   -4.1666 C.3     1  UNL1        0.0000
     69 C           0.6118    3.3412   -3.8484 C.3     1  UNL1        0.0000
     70 C           2.7961    4.2225   -3.0181 C.3     1  UNL1        0.0000
     71 C           9.1451   -1.6298    2.2320 C.ar    1  UNL1        0.0000
     72 C           7.9058   -3.3922    0.4492 C.ar    1  UNL1        0.0000
     73 C           7.5288    0.4769    3.5653 C.ar    1  UNL1        0.0000
     74 C           4.7729    0.5988    3.1037 C.ar    1  UNL1        0.0000
     75 C           5.3751    1.5189    3.9360 C.ar    1  UNL1        0.0000
     76 C           6.7599    1.4532    4.1685 C.ar    1  UNL1        0.0000
     77 C           9.2629   -3.4847    0.6787 C.ar    1  UNL1        0.0000
     78 C           9.8833   -2.5962    1.5760 C.ar    1  UNL1        0.0000
     79 C           6.4680   -0.5615   -1.7337 C.ar    1  UNL1        0.0000
     80 C           8.7048    0.5295   -0.4540 C.ar    1  UNL1        0.0000
     81 C           7.7143   -1.1154   -1.9308 C.ar    1  UNL1        0.0000
     82 C           8.8370   -0.5636   -1.2873 C.ar    1  UNL1        0.0000
     83 C           8.3586    2.8777    1.3400 C.ar    1  UNL1        0.0000
     84 C           5.8465    4.0922    1.5477 C.ar    1  UNL1        0.0000
     85 C           6.9245    4.6154    2.2307 C.ar    1  UNL1        0.0000
     86 C           8.1865    4.0019    2.1241 C.ar    1  UNL1        0.0000
     87 C          -6.4647    4.8689    1.3207 C.ar    1  UNL1        0.0000
     88 C          -4.8620    6.4889    2.9386 C.ar    1  UNL1        0.0000
     89 C          -1.9342    6.5454    2.5690 C.2     1  UNL1        0.0000
     90 C          -0.7803    4.9427    0.4074 C.2     1  UNL1        0.0000
     91 C          -7.0424    5.6429    2.3047 C.ar    1  UNL1        0.0000
     92 C          -6.2313    6.4522    3.1208 C.ar    1  UNL1        0.0000
     93 C          -0.1344    5.7552    1.2911 C.2     1  UNL1        0.0000
     94 C          -0.6119    6.4497    2.2216 C.2     1  UNL1        0.0000
     95 C          -6.3930    0.1933    1.3722 C.ar    1  UNL1        0.0000
     96 C          -7.1422   -0.0740    4.0561 C.ar    1  UNL1        0.0000
     97 C          -6.9546    1.2596    2.0421 C.ar    1  UNL1        0.0000
     98 C          -7.3268    1.1236    3.3913 C.ar    1  UNL1        0.0000
     99 C          -6.7395   -2.6760    5.4366 C.ar    1  UNL1        0.0000
    100 C          -5.5003   -4.7813    4.0711 C.ar    1  UNL1        0.0000
    101 C          -5.8890   -4.9447    5.3842 C.ar    1  UNL1        0.0000
    102 C          -6.5141   -3.8849    6.0670 C.ar    1  UNL1        0.0000
    103 H          -4.9603    0.9172   -2.1046 H       1  UNL1        0.0000
    104 H          -3.9385   -0.2327   -4.7154 H       1  UNL1        0.0000
    105 H          -5.0144    0.7391   -5.7349 H       1  UNL1        0.0000
    106 H          -5.6174    0.0452   -4.2234 H       1  UNL1        0.0000
    107 H          -6.3796    2.4122   -3.5202 H       1  UNL1        0.0000
    108 H          -5.7587    2.9679   -5.0869 H       1  UNL1        0.0000
    109 H          -5.2275    3.7530   -3.5963 H       1  UNL1        0.0000
    110 H          -3.3324    2.6696   -5.6791 H       1  UNL1        0.0000
    111 H          -2.2479    1.7230   -4.6438 H       1  UNL1        0.0000
    112 H          -2.7784    3.3291   -4.1336 H       1  UNL1        0.0000
    113 H          -3.1319   -4.9044   -0.6847 H       1  UNL1        0.0000
    114 H          -5.8937   -5.9033   -2.9375 H       1  UNL1        0.0000
    115 H          -6.2612   -4.8623   -1.5553 H       1  UNL1        0.0000
    116 H          -5.1478   -6.2244   -1.3611 H       1  UNL1        0.0000
    117 H          -5.5597   -2.7857   -2.8231 H       1  UNL1        0.0000
    118 H          -5.2571   -3.8024   -4.2434 H       1  UNL1        0.0000
    119 H          -3.9962   -2.7147   -3.6376 H       1  UNL1        0.0000
    120 H          -3.7517   -5.8041   -4.1196 H       1  UNL1        0.0000
    121 H          -2.9049   -6.2131   -2.6225 H       1  UNL1        0.0000
    122 H          -2.4156   -4.7852   -3.5554 H       1  UNL1        0.0000
    123 H           2.7828   -3.7571   -1.2323 H       1  UNL1        0.0000
    124 H           2.5080   -6.4525    1.2035 H       1  UNL1        0.0000
    125 H           3.8136   -5.2684    1.1329 H       1  UNL1        0.0000
    126 H           3.1751   -5.9538   -0.3642 H       1  UNL1        0.0000
    127 H           1.1187   -4.8795    2.5780 H       1  UNL1        0.0000
    128 H           0.7979   -3.2210    2.0259 H       1  UNL1        0.0000
    129 H           2.4267   -3.6962    2.5271 H       1  UNL1        0.0000
    130 H           0.2519   -5.9645    0.4369 H       1  UNL1        0.0000
    131 H           0.7308   -5.3027   -1.1339 H       1  UNL1        0.0000
    132 H          -0.2627   -4.3402   -0.0195 H       1  UNL1        0.0000
    133 H           1.2204    3.0966   -1.1918 H       1  UNL1        0.0000
    134 H           2.8185    2.4923   -5.1417 H       1  UNL1        0.0000
    135 H           2.1971    1.0568   -4.2984 H       1  UNL1        0.0000
    136 H           3.7285    1.7921   -3.8068 H       1  UNL1        0.0000
    137 H           0.7953    3.8372   -4.8068 H       1  UNL1        0.0000
    138 H           0.0572    4.0312   -3.2079 H       1  UNL1        0.0000
    139 H          -0.0209    2.4720   -4.0267 H       1  UNL1        0.0000
    140 H           2.3215    4.9168   -2.3186 H       1  UNL1        0.0000
    141 H           2.9151    4.7319   -3.9791 H       1  UNL1        0.0000
    142 H           3.7987    3.9973   -2.6425 H       1  UNL1        0.0000
    143 H          -0.3689    4.3355   -0.3848 H       1  UNL1        0.0000
    144 H          -2.3276    7.1405    3.3821 H       1  UNL1        0.0000
    145 H          -4.2758    7.1377    3.5766 H       1  UNL1        0.0000
    146 H          -7.0655    4.2530    0.6632 H       1  UNL1        0.0000
    147 H           9.5901    0.9232    0.0290 H       1  UNL1        0.0000
    148 H           9.3407    2.4243    1.2885 H       1  UNL1        0.0000
    149 H           4.8642    4.5450    1.6083 H       1  UNL1        0.0000
    150 H           5.5881   -0.9712   -2.2138 H       1  UNL1        0.0000
    151 H          -7.4367   -0.1426    5.0960 H       1  UNL1        0.0000
    152 H          -6.0995    0.2848    0.3353 H       1  UNL1        0.0000
    153 H           8.5951    0.4675    3.7536 H       1  UNL1        0.0000
    154 H           3.7092    0.6280    2.9057 H       1  UNL1        0.0000
    155 H           9.6534   -0.9663    2.9208 H       1  UNL1        0.0000
    156 H           7.4021   -4.0576   -0.2410 H       1  UNL1        0.0000
    157 O           3.0097    3.8918    0.2524 O.2     1  UNL1        0.0000
    158 O           3.4169   -0.1114   -1.9432 O.2     1  UNL1        0.0000
    159 O           2.5953   -0.9019    1.6124 O.2     1  UNL1        0.0000
    160 O           5.1192   -3.8887   -0.8244 O.2     1  UNL1        0.0000
    161 O          -5.0412   -1.4430   -0.8838 O.2     1  UNL1        0.0000
    162 O          -4.1803   -5.3675    1.3238 O.2     1  UNL1        0.0000
    163 O          -1.6894    3.0366   -1.7780 O.2     1  UNL1        0.0000
    164 O          -6.1520    2.6288   -0.8175 O.2     1  UNL1        0.0000
    165 H          -7.2248   -1.8833    5.9923 H       1  UNL1        0.0000
    166 H           4.7827    2.2985    4.4029 H       1  UNL1        0.0000
    167 H           7.2347    2.1863    4.8122 H       1  UNL1        0.0000
    168 H           9.8511   -4.2416    0.1695 H       1  UNL1        0.0000
    169 H          10.9509   -2.6709    1.7591 H       1  UNL1        0.0000
    170 H          -5.0148   -5.5788    3.5220 H       1  UNL1        0.0000
    171 H          -5.7143   -5.8887    5.8903 H       1  UNL1        0.0000
    172 H          -6.8231   -4.0156    7.0995 H       1  UNL1        0.0000
    173 H          -7.0980    2.1975    1.5223 H       1  UNL1        0.0000
    174 H          -7.7600    1.9685    3.9180 H       1  UNL1        0.0000
    175 H           7.8262   -1.9842   -2.5705 H       1  UNL1        0.0000
    176 H           9.8145   -1.0112   -1.4303 H       1  UNL1        0.0000
    177 H           6.8005    5.4986    2.8491 H       1  UNL1        0.0000
    178 H           9.0338    4.4126    2.6646 H       1  UNL1        0.0000
    179 H          -8.1187    5.6344    2.4438 H       1  UNL1        0.0000
    180 H          -6.6832    7.0635    3.8956 H       1  UNL1        0.0000
@<TRIPOS>BOND
     1     1     9    1
     2     1    11    1
     3     1     2    1
     4     2    10    1
     5     2    12    1
     6     3    45    1
     7     3    12    1
     8     4    19    1
     9     4     8    1
    10     5    58    1
    11     5    14    1
    12     6    32    1
    13     6    10    1
    14     7     1    1
    15     7     4    1
    16     8     2    1
    17     9     6    1
    18    11     3    1
    19    13     1    1
    20    13     5    1
    21    14     2    1
    22    15    27   am
    23    15    20   am
    24    16    33   am
    25    16    40   am
    26    17    46   am
    27    18    66   am
    28    19   103    1
    29    19    15    1
    30    20    21    1
    31    21    22   ar
    32    22    87   ar
    33    22    23   ar
    34    23    88   ar
    35    24    23   ar
    36    24    89    1
    37    25    24   ar
    38    26    21   ar
    39    26    25   ar
    40    27    26    1
    41    28    19    1
    42    29   106    1
    43    29    28    1
    44    30    28    1
    45    30   109    1
    46    30   107    1
    47    31   112    1
    48    31    28    1
    49    32   113    1
    50    32    16    1
    51    33    34    1
    52    34    35   ar
    53    34    39   ar
    54    35    36   ar
    55    36    96   ar
    56    36    37   ar
    57    37    99   ar
    58    38   100   ar
    59    38    37   ar
    60    39    38   ar
    61    40   162    2
    62    40    39    1
    63    41    42    1
    64    41    32    1
    65    42   115    1
    66    42   116    1
    67    43   117    1
    68    43    41    1
    69    44   121    1
    70    44    41    1
    71    45   123    1
    72    45    17    1
    73    45    54    1
    74    46    47    1
    75    46   159    2
    76    47    48   ar
    77    48    49   ar
    78    48    74   ar
    79    49    73   ar
    80    50    71   ar
    81    50    49   ar
    82    51    50   ar
    83    52    51   ar
    84    52    47   ar
    85    53    17   am
    86    53    52    1
    87    54    55    1
    88    54    56    1
    89    55   125    1
    90    55   124    1
    91    56   128    1
    92    56   129    1
    93    56   127    1
    94    57   132    1
    95    57   130    1
    96    57    54    1
    97    58   133    1
    98    58    18    1
    99    59    18   am
   100    59    60    1
   101    60    65   ar
   102    61    60   ar
   103    61    62   ar
   104    62    63   ar
   105    63    64   ar
   106    63    83   ar
   107    64    84   ar
   108    65    64   ar
   109    66    65    1
   110    66   157    2
   111    67    70    1
   112    67    58    1
   113    68   136    1
   114    68    67    1
   115    69    67    1
   116    69   138    1
   117    70   142    1
   118    70   140    1
   119    71   155    1
   120    72    77   ar
   121    72    51   ar
   122    73   153    1
   123    73    76   ar
   124    74    75   ar
   125    75    76   ar
   126    75   166    1
   127    76   167    1
   128    77    78   ar
   129    78   169    1
   130    78    71   ar
   131    79    61   ar
   132    80    62   ar
   133    80   147    1
   134    81    79   ar
   135    81    82   ar
   136    82    80   ar
   137    83    86   ar
   138    84   149    1
   139    84    85   ar
   140    85   177    1
   141    86    85   ar
   142    86   178    1
   143    87    91   ar
   144    88    92   ar
   145    88   145    1
   146    89   144    1
   147    90    25    1
   148    90    93    2
   149    91   179    1
   150    91    92   ar
   151    92   180    1
   152    93    94    1
   153    94    89    2
   154    95    35   ar
   155    95    97   ar
   156    96   151    1
   157    97    98   ar
   158    98   174    1
   159    98    96   ar
   160    99   165    1
   161    99   102   ar
   162   100   101   ar
   163   101   171    1
   164   101   102   ar
   165   102   172    1
   166   104    29    1
   167   105    29    1
   168   108    30    1
   169   110    31    1
   170   111    31    1
   171   114    42    1
   172   118    43    1
   173   119    43    1
   174   120    44    1
   175   122    44    1
   176   126    55    1
   177   131    57    1
   178   134    68    1
   179   135    68    1
   180   137    69    1
   181   139    69    1
   182   141    70    1
   183   143    90    1
   184   146    87    1
   185   148    83    1
   186   150    79    1
   187   152    95    1
   188   154    74    1
   189   156    72    1
   190   158    59    2
   191   160    53    2
   192   161    33    2
   193   163    27    2
   194   164    20    2
   195   168    77    1
   196   170   100    1
   197   173    97    1
   198   175    81    1
   199   176    82    1
