@<TRIPOS>MOLECULE
RhRh_S-PTV4_2_sp
 122 133 0 0 0
SMALL
GASTEIGER

@<TRIPOS>ATOM
      1 Rh         -0.0270    0.0087    0.0350 Rh      1  UNL1        0.0000
      2 Rh         -0.0528   -0.0393   -2.3583 Rh      1  UNL1        0.0000
      3 C           2.4723    0.7059   -1.2024 C.3     1  UNL1        0.0000
      4 C          -2.5469   -0.7617   -1.1084 C.3     1  UNL1        0.0000
      5 C           0.7105   -2.5217   -1.1052 C.3     1  UNL1        0.0000
      6 C          -0.7929    2.4899   -1.1961 C.3     1  UNL1        0.0000
      7 O           0.5943   -1.9263    0.0132 O.3     1  UNL1        0.0000
      8 O           0.5913   -1.9976   -2.2508 O.3     1  UNL1        0.0000
      9 O           1.9126    0.6208   -0.0632 O.3     1  UNL1        0.0000
     10 O           1.9110    0.5922   -2.3306 O.3     1  UNL1        0.0000
     11 O          -0.6568    1.9404   -0.0563 O.3     1  UNL1        0.0000
     12 O          -0.6919    1.9206   -2.3213 O.3     1  UNL1        0.0000
     13 O          -1.9624   -0.6184    0.0129 O.3     1  UNL1        0.0000
     14 O          -2.0114   -0.6730   -2.2510 O.3     1  UNL1        0.0000
     15 N           0.1191   -4.5116    0.0872 N.am    1  UNL1        0.0000
     16 N           4.5006    0.1414   -0.0470 N.am    1  UNL1        0.0000
     17 N          -0.1747    4.5289   -0.1047 N.am    1  UNL1        0.0000
     18 N          -4.5513   -0.1353    0.0429 N.am    1  UNL1        0.0000
     19 C           0.6258   -4.8768    1.3499 C.2     1  UNL1        0.0000
     20 C          -0.5366   -4.8663    2.2809 C.ar    1  UNL1        0.0000
     21 C          -0.6062   -5.1683    3.6318 C.ar    1  UNL1        0.0000
     22 C          -1.8370   -4.9710    4.2711 C.ar    1  UNL1        0.0000
     23 C          -2.9452   -4.4756    3.5727 C.ar    1  UNL1        0.0000
     24 C          -2.8684   -4.1738    2.2069 C.ar    1  UNL1        0.0000
     25 C          -1.6488   -4.3903    1.5828 C.ar    1  UNL1        0.0000
     26 C          -1.2373   -4.1278    0.1805 C.2     1  UNL1        0.0000
     27 C           4.9383    0.7138    1.1622 C.2     1  UNL1        0.0000
     28 C           4.9547   -0.3920    2.1603 C.ar    1  UNL1        0.0000
     29 C           5.3237   -0.3897    3.4962 C.ar    1  UNL1        0.0000
     30 C           5.1434   -1.5793    4.2139 C.ar    1  UNL1        0.0000
     31 C           4.5991   -2.7176    3.6059 C.ar    1  UNL1        0.0000
     32 C           4.2283   -2.7137    2.2550 C.ar    1  UNL1        0.0000
     33 C           4.4292   -1.5346    1.5526 C.ar    1  UNL1        0.0000
     34 C           4.1060   -1.2020    0.1425 C.2     1  UNL1        0.0000
     35 C          -0.6493    4.9650    1.1473 C.2     1  UNL1        0.0000
     36 C           0.5350    4.9966    2.0501 C.ar    1  UNL1        0.0000
     37 C           0.6390    5.3706    3.3807 C.ar    1  UNL1        0.0000
     38 C           1.8844    5.2018    3.9996 C.ar    1  UNL1        0.0000
     39 C           2.9734    4.6640    3.3022 C.ar    1  UNL1        0.0000
     40 C           2.8619    4.2889    1.9571 C.ar    1  UNL1        0.0000
     41 C           1.6280    4.4776    1.3524 C.ar    1  UNL1        0.0000
     42 C           1.1823    4.1433   -0.0239 C.2     1  UNL1        0.0000
     43 C          -4.9495   -0.6078    1.3083 C.2     1  UNL1        0.0000
     44 C          -4.9513    0.5774    2.2104 C.ar    1  UNL1        0.0000
     45 C          -5.2822    0.6824    3.5521 C.ar    1  UNL1        0.0000
     46 C          -5.0919    1.9279    4.1646 C.ar    1  UNL1        0.0000
     47 C          -4.5750    3.0156    3.4497 C.ar    1  UNL1        0.0000
     48 C          -4.2438    2.9030    2.0932 C.ar    1  UNL1        0.0000
     49 C          -4.4539    1.6692    1.4953 C.ar    1  UNL1        0.0000
     50 C          -4.1654    1.2219    0.1091 C.2     1  UNL1        0.0000
     51 C           1.0184   -4.0141   -0.9610 C.3     1  UNL1        0.0000
     52 C           1.0670   -4.8752   -2.2355 C.3     1  UNL1        0.0000
     53 C          -0.2443   -4.9390   -3.0257 C.3     1  UNL1        0.0000
     54 C           2.2428   -4.4369   -3.1223 C.3     1  UNL1        0.0000
     55 C           3.9747    0.9771   -1.1307 C.3     1  UNL1        0.0000
     56 C           4.7490    0.9014   -2.4562 C.3     1  UNL1        0.0000
     57 C           4.7797   -0.4854   -3.1068 C.3     1  UNL1        0.0000
     58 C           6.1675    1.4443   -2.2448 C.3     1  UNL1        0.0000
     59 C          -1.0993    3.9870   -1.1075 C.3     1  UNL1        0.0000
     60 C          -1.1805    4.7948   -2.4148 C.3     1  UNL1        0.0000
     61 C           0.1121    4.8285   -3.2367 C.3     1  UNL1        0.0000
     62 C          -2.3752    4.3189   -3.2553 C.3     1  UNL1        0.0000
     63 C          -4.0421   -1.0615   -0.9752 C.3     1  UNL1        0.0000
     64 C          -4.8874   -1.1385   -2.2592 C.3     1  UNL1        0.0000
     65 C          -4.9362    0.1535   -3.0816 C.3     1  UNL1        0.0000
     66 C          -4.4440   -2.3373   -3.1117 C.3     1  UNL1        0.0000
     67 H          -3.8794   -4.3123    4.1001 H       1  UNL1        0.0000
     68 H          -3.7160   -3.7597    1.6719 H       1  UNL1        0.0000
     69 H           4.4535   -3.6178    4.1943 H       1  UNL1        0.0000
     70 H           3.7774   -3.5825    1.7868 H       1  UNL1        0.0000
     71 H           2.0057    5.4802    5.0417 H       1  UNL1        0.0000
     72 H           3.9198    4.5257    3.8148 H       1  UNL1        0.0000
     73 H           3.6944    3.8434    1.4233 H       1  UNL1        0.0000
     74 H          -4.4182    3.9619    3.9573 H       1  UNL1        0.0000
     75 H          -3.8134    3.7347    1.5459 H       1  UNL1        0.0000
     76 H           2.0133   -4.0450   -0.5047 H       1  UNL1        0.0000
     77 H          -0.1160   -5.5954   -3.8926 H       1  UNL1        0.0000
     78 H          -0.5347   -3.9485   -3.3813 H       1  UNL1        0.0000
     79 H          -1.0649   -5.3296   -2.4213 H       1  UNL1        0.0000
     80 H           3.1749   -4.3750   -2.5516 H       1  UNL1        0.0000
     81 H           2.0539   -3.4554   -3.5616 H       1  UNL1        0.0000
     82 H           2.3868   -5.1561   -3.9343 H       1  UNL1        0.0000
     83 H           4.0535    2.0029   -0.7544 H       1  UNL1        0.0000
     84 H           5.3532   -1.1935   -2.5021 H       1  UNL1        0.0000
     85 H           5.2607   -0.4163   -4.0880 H       1  UNL1        0.0000
     86 H           3.7764   -0.8912   -3.2368 H       1  UNL1        0.0000
     87 H           6.7294    0.8003   -1.5597 H       1  UNL1        0.0000
     88 H           6.1569    2.4533   -1.8206 H       1  UNL1        0.0000
     89 H           6.7112    1.4765   -3.1935 H       1  UNL1        0.0000
     90 H          -2.0829    4.0374   -0.6295 H       1  UNL1        0.0000
     91 H           0.9466    5.2393   -2.6654 H       1  UNL1        0.0000
     92 H          -0.0357    5.4540   -4.1231 H       1  UNL1        0.0000
     93 H           0.3929    3.8253   -3.5633 H       1  UNL1        0.0000
     94 H          -3.2942    4.2808   -2.6618 H       1  UNL1        0.0000
     95 H          -2.1954    3.3193   -3.6560 H       1  UNL1        0.0000
     96 H          -2.5381    5.0027   -4.0938 H       1  UNL1        0.0000
     97 H          -4.0832   -2.0451   -0.4962 H       1  UNL1        0.0000
     98 H          -3.9404    0.4312   -3.4324 H       1  UNL1        0.0000
     99 H          -5.3306    0.9901   -2.5021 H       1  UNL1        0.0000
    100 H          -5.5829    0.0066   -3.9528 H       1  UNL1        0.0000
    101 H          -4.3932   -3.2557   -2.5180 H       1  UNL1        0.0000
    102 H          -3.4562   -2.1642   -3.5432 H       1  UNL1        0.0000
    103 H          -5.1543   -2.4976   -3.9285 H       1  UNL1        0.0000
    104 H           1.2883   -5.8851   -1.8643 H       1  UNL1        0.0000
    105 H           4.2109    1.5809   -3.1281 H       1  UNL1        0.0000
    106 H          -1.3955    5.8187   -2.0796 H       1  UNL1        0.0000
    107 H          -5.9027   -1.3464   -1.8947 H       1  UNL1        0.0000
    108 O           3.5833   -1.9045   -0.7001 O.2     1  UNL1        0.0000
    109 O           5.2035    1.8899    1.3244 O.2     1  UNL1        0.0000
    110 O          -1.8110    5.2158    1.4071 O.2     1  UNL1        0.0000
    111 O           1.8146    3.6160   -0.9179 O.2     1  UNL1        0.0000
    112 O           1.7949   -5.1060    1.5955 O.2     1  UNL1        0.0000
    113 O          -1.8938   -3.6502   -0.7244 O.2     1  UNL1        0.0000
    114 O          -5.1944   -1.7688    1.5767 O.2     1  UNL1        0.0000
    115 O          -3.6703    1.8542   -0.8034 O.2     1  UNL1        0.0000
    116 H           0.2646   -5.5305    4.1673 H       1  UNL1        0.0000
    117 H          -1.9315   -5.1929    5.3295 H       1  UNL1        0.0000
    118 H           5.7246    0.5038    3.9623 H       1  UNL1        0.0000
    119 H           5.4182   -1.6176    5.2633 H       1  UNL1        0.0000
    120 H          -0.2169    5.7660    3.9169 H       1  UNL1        0.0000
    121 H          -5.3362    2.0501    5.2151 H       1  UNL1        0.0000
    122 H          -5.6611   -0.1727    4.1012 H       1  UNL1        0.0000
@<TRIPOS>BOND
     1     2    10    1
     2     2    12    1
     3     2    14    1
     4     2     8    1
     5     2     1    1
     6     3    55    1
     7     3     9    1
     8     4    63    1
     9     4    13    1
    10     5    51    1
    11     5     7    1
    12     6    59    1
    13     6    11    1
    14     7     1    1
    15     8     5    1
    16     9     1    1
    17    10     3    1
    18    11     1    1
    19    12     6    1
    20    13     1    1
    21    14     4    1
    22    15    26   am
    23    15    19   am
    24    16    34   am
    25    16    27   am
    26    17    42   am
    27    17    35   am
    28    18    50   am
    29    18    43   am
    30    19   112    2
    31    19    20    1
    32    20    21   ar
    33    21   116    1
    34    21    22   ar
    35    22   117    1
    36    23    67    1
    37    23    22   ar
    38    24    23   ar
    39    25    24   ar
    40    25    20   ar
    41    26    25    1
    42    27   109    2
    43    27    28    1
    44    28    29   ar
    45    29   118    1
    46    29    30   ar
    47    30   119    1
    48    31    69    1
    49    31    30   ar
    50    32    31   ar
    51    33    28   ar
    52    33    32   ar
    53    34    33    1
    54    35   110    2
    55    35    36    1
    56    36    37   ar
    57    37   120    1
    58    37    38   ar
    59    38    71    1
    60    39    72    1
    61    39    38   ar
    62    40    39   ar
    63    41    40   ar
    64    41    36   ar
    65    42    41    1
    66    43   114    2
    67    43    44    1
    68    44    45   ar
    69    45   122    1
    70    45    46   ar
    71    46   121    1
    72    47    74    1
    73    47    46   ar
    74    48    47   ar
    75    49    48   ar
    76    49    44   ar
    77    50    49    1
    78    51    76    1
    79    51    15    1
    80    52   104    1
    81    52    51    1
    82    53    79    1
    83    53    52    1
    84    54    80    1
    85    54    52    1
    86    55    83    1
    87    55    16    1
    88    56    58    1
    89    56    55    1
    90    57    84    1
    91    57    56    1
    92    58    88    1
    93    58    87    1
    94    59    90    1
    95    59    17    1
    96    60   106    1
    97    60    59    1
    98    61    91    1
    99    61    60    1
   100    62    94    1
   101    62    60    1
   102    63    97    1
   103    63    18    1
   104    64   107    1
   105    64    63    1
   106    65    99    1
   107    65    64    1
   108    66   101    1
   109    66    64    1
   110    68    24    1
   111    70    32    1
   112    73    40    1
   113    75    48    1
   114    77    53    1
   115    78    53    1
   116    81    54    1
   117    82    54    1
   118    85    57    1
   119    86    57    1
   120    89    58    1
   121    92    61    1
   122    93    61    1
   123    95    62    1
   124    96    62    1
   125    98    65    1
   126   100    65    1
   127   102    66    1
   128   103    66    1
   129   105    56    1
   130   108    34    2
   131   111    42    2
   132   113    26    2
   133   115    50    2
