@<TRIPOS>MOLECULE
RhRh_cis-Cy-fused-Hback-S-PTV4_32_sp
 146 157 0 0 0
SMALL
GASTEIGER

@<TRIPOS>ATOM
      1 Rh         -0.0238    0.0005    0.0574 Rh      1  UNL1        0.0000
      2 Rh         -0.1211    0.0708   -2.3333 Rh      1  UNL1        0.0000
      3 C          -0.7544   -2.4886   -1.1894 C.3     1  UNL1        0.0000
      4 C           0.6139    2.5587   -1.0924 C.3     1  UNL1        0.0000
      5 C           2.4605   -0.6198   -1.2573 C.3     1  UNL1        0.0000
      6 C          -2.6086    0.6711   -1.0064 C.3     1  UNL1        0.0000
      7 O          -1.9984    0.5003    0.0987 O.3     1  UNL1        0.0000
      8 O          -2.1243    0.5060   -2.1630 O.3     1  UNL1        0.0000
      9 O          -0.5377   -1.9678   -0.0473 O.3     1  UNL1        0.0000
     10 O          -0.5843   -1.9348   -2.3133 O.3     1  UNL1        0.0000
     11 O           1.9459   -0.4988   -0.0974 O.3     1  UNL1        0.0000
     12 O           1.8882   -0.3799   -2.3587 O.3     1  UNL1        0.0000
     13 O           0.4894    1.9706    0.0312 O.3     1  UNL1        0.0000
     14 O           0.3463    2.0749   -2.2286 O.3     1  UNL1        0.0000
     15 N          -4.0966    2.1955    0.1112 N.am    1  UNL1        0.0000
     16 N          -2.2136   -4.0102   -0.0363 N.am    1  UNL1        0.0000
     17 N           3.9599   -2.2459   -0.3241 N.am    1  UNL1        0.0000
     18 N           2.2098    3.9859   -0.0031 N.am    1  UNL1        0.0000
     19 C          -3.2027    3.2672    0.0998 C.2     1  UNL1        0.0000
     20 C          -4.8217    2.1102    1.3007 C.2     1  UNL1        0.0000
     21 C          -3.2581   -3.0968    0.1372 C.2     1  UNL1        0.0000
     22 C          -1.8994   -4.6755    1.1582 C.2     1  UNL1        0.0000
     23 C           2.9844   -3.2492   -0.2759 C.2     1  UNL1        0.0000
     24 C           4.7732   -2.2417    0.8111 C.2     1  UNL1        0.0000
     25 C           3.2520    3.0542   -0.0104 C.2     1  UNL1        0.0000
     26 C           2.0587    4.5933    1.2529 C.2     1  UNL1        0.0000
     27 C          -4.0688    1.0836   -0.8431 C.3     1  UNL1        0.0000
     28 C          -4.8989    1.3375   -2.1153 C.3     1  UNL1        0.0000
     29 C          -4.4013    2.4979   -2.9837 C.3     1  UNL1        0.0000
     30 C          -5.0480    0.0408   -2.9251 C.3     1  UNL1        0.0000
     31 C          -1.2405   -3.9338   -1.1309 C.3     1  UNL1        0.0000
     32 C          -1.6934   -4.5588   -2.4600 C.3     1  UNL1        0.0000
     33 C          -2.9259   -3.9079   -3.0970 C.3     1  UNL1        0.0000
     34 C          -1.9023   -6.0656   -2.2652 C.3     1  UNL1        0.0000
     35 C           3.9118   -1.0938   -1.2317 C.3     1  UNL1        0.0000
     36 C           4.6293   -1.3168   -2.5752 C.3     1  UNL1        0.0000
     37 C           4.0167   -2.4096   -3.4572 C.3     1  UNL1        0.0000
     38 C           4.7712    0.0137   -3.3299 C.3     1  UNL1        0.0000
     39 C           1.1204    3.9941   -0.9843 C.3     1  UNL1        0.0000
     40 C           1.4335    4.7123   -2.3065 C.3     1  UNL1        0.0000
     41 C           1.6666    6.2027   -2.0300 C.3     1  UNL1        0.0000
     42 C           2.5923    4.1122   -3.1101 C.3     1  UNL1        0.0000
     43 C           2.2806    2.8981    3.0219 C.3     1  UNL1        0.0000
     44 C           3.0677    3.9498    2.1937 C.3     1  UNL1        0.0000
     45 C           4.0916    3.3027    1.2344 C.3     1  UNL1        0.0000
     46 C           4.8467    2.0717    1.7430 C.3     1  UNL1        0.0000
     47 C           3.9494    1.0923    2.5034 C.3     1  UNL1        0.0000
     48 C           3.1852    1.8162    3.6157 C.3     1  UNL1        0.0000
     49 C           1.9276   -3.3851    1.9346 C.3     1  UNL1        0.0000
     50 C           4.6917   -3.4142    3.0918 C.3     1  UNL1        0.0000
     51 C           3.4921   -2.7821    3.8047 C.3     1  UNL1        0.0000
     52 C           2.1971   -3.5116    3.4336 C.3     1  UNL1        0.0000
     53 C           4.4956   -3.5313    1.5767 C.3     1  UNL1        0.0000
     54 C           3.0939   -3.9402    1.0720 C.3     1  UNL1        0.0000
     55 C          -3.6395   -1.2713    2.7926 C.3     1  UNL1        0.0000
     56 C          -4.6263   -2.2311    2.1254 C.3     1  UNL1        0.0000
     57 C          -1.9023   -3.0747    3.0174 C.3     1  UNL1        0.0000
     58 C          -2.7266   -2.0239    3.7652 C.3     1  UNL1        0.0000
     59 C          -3.9318   -3.4233    1.4629 C.3     1  UNL1        0.0000
     60 C          -2.7863   -4.0977    2.2503 C.3     1  UNL1        0.0000
     61 C          -1.4243    3.3968    2.6010 C.3     1  UNL1        0.0000
     62 C          -2.2127    4.5877    2.0268 C.3     1  UNL1        0.0000
     63 C          -3.7544    2.7783    3.4686 C.3     1  UNL1        0.0000
     64 C          -2.3382    2.2766    3.1607 C.3     1  UNL1        0.0000
     65 C          -4.4425    3.2926    2.1851 C.3     1  UNL1        0.0000
     66 C          -3.4942    4.1468    1.3081 C.3     1  UNL1        0.0000
     67 H          -4.5320    0.2489   -0.3075 H       1  UNL1        0.0000
     68 H          -5.0718    2.6281   -3.8394 H       1  UNL1        0.0000
     69 H          -3.3949    2.3018   -3.3579 H       1  UNL1        0.0000
     70 H          -4.3755    3.4399   -2.4314 H       1  UNL1        0.0000
     71 H          -5.3668   -0.7925   -2.2919 H       1  UNL1        0.0000
     72 H          -4.1007   -0.2390   -3.3902 H       1  UNL1        0.0000
     73 H          -5.7929    0.1786   -3.7147 H       1  UNL1        0.0000
     74 H          -0.3753   -4.5023   -0.7718 H       1  UNL1        0.0000
     75 H          -3.8232   -4.0828   -2.4966 H       1  UNL1        0.0000
     76 H          -3.0973   -4.3453   -4.0859 H       1  UNL1        0.0000
     77 H          -2.8010   -2.8307   -3.2075 H       1  UNL1        0.0000
     78 H          -2.7351   -6.2557   -1.5793 H       1  UNL1        0.0000
     79 H          -1.0126   -6.5479   -1.8490 H       1  UNL1        0.0000
     80 H          -2.1403   -6.5459   -3.2188 H       1  UNL1        0.0000
     81 H           4.4501   -0.3045   -0.6970 H       1  UNL1        0.0000
     82 H           3.9804   -3.3734   -2.9453 H       1  UNL1        0.0000
     83 H           4.6192   -2.5279   -4.3637 H       1  UNL1        0.0000
     84 H           2.9977   -2.1494   -3.7492 H       1  UNL1        0.0000
     85 H           5.1790    0.7988   -2.6860 H       1  UNL1        0.0000
     86 H           3.8026    0.3569   -3.6988 H       1  UNL1        0.0000
     87 H           5.4414   -0.1128   -4.1856 H       1  UNL1        0.0000
     88 H           0.3089    4.5403   -0.4911 H       1  UNL1        0.0000
     89 H           2.5664    6.3479   -1.4223 H       1  UNL1        0.0000
     90 H           0.8267    6.6517   -1.4912 H       1  UNL1        0.0000
     91 H           1.8063    6.7490   -2.9674 H       1  UNL1        0.0000
     92 H           2.4535    3.0449   -3.2819 H       1  UNL1        0.0000
     93 H           3.5467    4.2493   -2.5936 H       1  UNL1        0.0000
     94 H           2.6637    4.6185   -4.0782 H       1  UNL1        0.0000
     95 H          -5.8932    1.6033   -1.7307 H       1  UNL1        0.0000
     96 H          -0.8429   -4.4091   -3.1356 H       1  UNL1        0.0000
     97 H           5.6378   -1.6415   -2.2837 H       1  UNL1        0.0000
     98 H           0.5174    4.6062   -2.8996 H       1  UNL1        0.0000
     99 H           3.5147    4.6945    2.8563 H       1  UNL1        0.0000
    100 H           3.8951    2.2628    4.3258 H       1  UNL1        0.0000
    101 H           1.5505    2.4123    2.3640 H       1  UNL1        0.0000
    102 H           5.3262    1.5719    0.8971 H       1  UNL1        0.0000
    103 H           5.6486    2.4133    2.4087 H       1  UNL1        0.0000
    104 H           4.5665    0.2843    2.9050 H       1  UNL1        0.0000
    105 H           3.2385    0.6291    1.8079 H       1  UNL1        0.0000
    106 H           2.5721    1.1085    4.1863 H       1  UNL1        0.0000
    107 H           1.7094    3.4228    3.7928 H       1  UNL1        0.0000
    108 H           4.8207    4.0697    0.9379 H       1  UNL1        0.0000
    109 H           1.3478   -3.0956    3.9876 H       1  UNL1        0.0000
    110 H           1.0108   -3.9011    1.6438 H       1  UNL1        0.0000
    111 H           4.8537   -4.4198    3.4976 H       1  UNL1        0.0000
    112 H           5.6051   -2.8401    3.2754 H       1  UNL1        0.0000
    113 H           3.4046   -1.7254    3.5193 H       1  UNL1        0.0000
    114 H           3.6576   -2.8048    4.8873 H       1  UNL1        0.0000
    115 H           2.2721   -4.5699    3.7184 H       1  UNL1        0.0000
    116 H           1.7853   -2.3254    1.6933 H       1  UNL1        0.0000
    117 H           5.2287   -4.2501    1.1853 H       1  UNL1        0.0000
    118 H           2.9856   -5.0214    0.9588 H       1  UNL1        0.0000
    119 H          -5.3231   -2.6155    2.8802 H       1  UNL1        0.0000
    120 H          -5.2241   -1.7031    1.3776 H       1  UNL1        0.0000
    121 H          -2.0471   -1.3279    4.2711 H       1  UNL1        0.0000
    122 H          -4.1970   -0.4816    3.3036 H       1  UNL1        0.0000
    123 H          -1.2619   -2.5576    2.2930 H       1  UNL1        0.0000
    124 H          -1.2383   -3.6290    3.6874 H       1  UNL1        0.0000
    125 H          -3.3306   -2.5024    4.5486 H       1  UNL1        0.0000
    126 H          -3.0325   -0.7812    2.0226 H       1  UNL1        0.0000
    127 H          -4.6841   -4.1877    1.2231 H       1  UNL1        0.0000
    128 H          -3.1359   -4.8793    2.9286 H       1  UNL1        0.0000
    129 H          -2.5038    5.2740    2.8297 H       1  UNL1        0.0000
    130 H          -1.5771    5.1564    1.3443 H       1  UNL1        0.0000
    131 H          -2.4060    1.4642    2.4297 H       1  UNL1        0.0000
    132 H          -0.7563    3.7747    3.3802 H       1  UNL1        0.0000
    133 H          -4.3714    1.9841    3.8994 H       1  UNL1        0.0000
    134 H          -3.7182    3.5918    4.2019 H       1  UNL1        0.0000
    135 H          -1.8973    1.8392    4.0628 H       1  UNL1        0.0000
    136 H          -0.7853    2.9837    1.8176 H       1  UNL1        0.0000
    137 H          -5.3604    3.8254    2.4501 H       1  UNL1        0.0000
    138 H          -4.0184    5.0304    0.9246 H       1  UNL1        0.0000
    139 O           2.1397   -3.4275   -1.1321 O.2     1  UNL1        0.0000
    140 O           5.5673   -1.3643    1.0867 O.2     1  UNL1        0.0000
    141 O          -3.5486   -2.2161   -0.6488 O.2     1  UNL1        0.0000
    142 O          -0.9902   -5.4720    1.2769 O.2     1  UNL1        0.0000
    143 O          -5.5808    1.2010    1.5731 O.2     1  UNL1        0.0000
    144 O          -2.3409    3.4355   -0.7419 O.2     1  UNL1        0.0000
    145 O           3.4291    2.2171   -0.8740 O.2     1  UNL1        0.0000
    146 O           1.1917    5.3994    1.5214 O.2     1  UNL1        0.0000
@<TRIPOS>BOND
     1     1     7    1
     2     2    10    1
     3     2    14    1
     4     2     8    1
     5     2     1    1
     6     3    31    1
     7     3     9    1
     8     4    39    1
     9     4    13    1
    10     5    35    1
    11     5    11    1
    12     6    27    1
    13     6     7    1
    14     8     6    1
    15     9     1    1
    16    10     3    1
    17    11     1    1
    18    12     2    1
    19    12     5    1
    20    13     1    1
    21    14     4    1
    22    15    20   am
    23    16    21   am
    24    16    22   am
    25    17    23   am
    26    17    24   am
    27    18    26   am
    28    19    15   am
    29    19    66    1
    30    20   143    2
    31    20    65    1
    32    21    59    1
    33    22   142    2
    34    22    60    1
    35    23    54    1
    36    24   140    2
    37    24    53    1
    38    25    18   am
    39    25    45    1
    40    26   146    2
    41    26    44    1
    42    27    67    1
    43    27    15    1
    44    28    95    1
    45    28    27    1
    46    29    70    1
    47    29    28    1
    48    30    71    1
    49    30    28    1
    50    31    74    1
    51    31    16    1
    52    32    34    1
    53    32    31    1
    54    33    75    1
    55    33    32    1
    56    34    79    1
    57    34    78    1
    58    35    81    1
    59    35    17    1
    60    36    97    1
    61    36    35    1
    62    37    82    1
    63    37    36    1
    64    38    85    1
    65    38    36    1
    66    39    88    1
    67    39    18    1
    68    40    41    1
    69    40    39    1
    70    41    90    1
    71    41    89    1
    72    42    93    1
    73    42    40    1
    74    43    48    1
    75    43   107    1
    76    44    99    1
    77    44    43    1
    78    45   108    1
    79    45    46    1
    80    45    44    1
    81    46   103    1
    82    46    47    1
    83    47   104    1
    84    47    48    1
    85    48   106    1
    86    48   100    1
    87    49    52    1
    88    50   112    1
    89    50   111    1
    90    50    51    1
    91    51   114    1
    92    52   115    1
    93    52    51    1
    94    52   109    1
    95    53   117    1
    96    53    50    1
    97    54   118    1
    98    54    53    1
    99    54    49    1
   100    55   122    1
   101    55    58    1
   102    56    55    1
   103    56   119    1
   104    57   124    1
   105    57    58    1
   106    58   121    1
   107    58   125    1
   108    59   127    1
   109    59    56    1
   110    59    60    1
   111    60   128    1
   112    60    57    1
   113    61    64    1
   114    61   132    1
   115    62    61    1
   116    62   129    1
   117    63   133    1
   118    63   134    1
   119    64    63    1
   120    64   135    1
   121    65   137    1
   122    65    63    1
   123    66   138    1
   124    66    62    1
   125    66    65    1
   126    68    29    1
   127    69    29    1
   128    72    30    1
   129    73    30    1
   130    76    33    1
   131    77    33    1
   132    80    34    1
   133    83    37    1
   134    84    37    1
   135    86    38    1
   136    87    38    1
   137    91    41    1
   138    92    42    1
   139    94    42    1
   140    96    32    1
   141    98    40    1
   142   101    43    1
   143   102    46    1
   144   105    47    1
   145   110    49    1
   146   113    51    1
   147   116    49    1
   148   120    56    1
   149   123    57    1
   150   126    55    1
   151   130    62    1
   152   131    64    1
   153   136    61    1
   154   139    23    2
   155   141    21    2
   156   144    19    2
   157   145    25    2
