@<TRIPOS>MOLECULE
RhRh_tri-pFPh-O2C4_6_sp
 150 165 0 0 0
SMALL
GASTEIGER

@<TRIPOS>ATOM
      1 Rh          0.0248    0.0046    1.1934 Rh      1  UNL1        0.0000
      2 Rh          0.0246   -0.0055   -1.1936 Rh      1  UNL1        0.0000
      3 C          -1.8340   -1.8717   -0.0140 C.3     1  UNL1        0.0000
      4 C          -1.8023    1.9017    0.0139 C.3     1  UNL1        0.0000
      5 C           1.9169    1.8282   -0.0231 C.3     1  UNL1        0.0000
      6 C           1.8862   -1.8603    0.0229 C.3     1  UNL1        0.0000
      7 O           1.4629   -1.4412    1.1445 O.3     1  UNL1        0.0000
      8 O           1.4879   -1.4462   -1.1082 O.3     1  UNL1        0.0000
      9 O           1.5118    1.4208    1.1080 O.3     1  UNL1        0.0000
     10 O           1.4864    1.4164   -1.1447 O.3     1  UNL1        0.0000
     11 O          -1.3706    1.4872    1.1366 O.3     1  UNL1        0.0000
     12 O          -1.4325    1.4611   -1.1170 O.3     1  UNL1        0.0000
     13 O          -1.4564   -1.4377    1.1169 O.3     1  UNL1        0.0000
     14 O          -1.3952   -1.4648   -1.1366 O.3     1  UNL1        0.0000
     15 F           5.5165    3.1666    5.0103 F       1  UNL1        0.0000
     16 F           6.9248    1.7498   -3.9824 F       1  UNL1        0.0000
     17 F          -0.0758    7.5460   -1.4169 F       1  UNL1        0.0000
     18 F          -0.2079   -7.5419    1.4120 F       1  UNL1        0.0000
     19 F           6.8922   -1.8692    3.9854 F       1  UNL1        0.0000
     20 F           5.4653   -3.2597   -5.0089 F       1  UNL1        0.0000
     21 F          -7.8525   -0.4192   -1.4059 F       1  UNL1        0.0000
     22 F          -3.3107   -5.6383    4.9003 F       1  UNL1        0.0000
     23 F          -1.4545   -6.5441   -4.2352 F       1  UNL1        0.0000
     24 F          -1.3380    6.5650    4.2360 F       1  UNL1        0.0000
     25 F          -3.2121    5.6941   -4.9001 F       1  UNL1        0.0000
     26 F          -7.8459    0.5568    1.4059 F       1  UNL1        0.0000
     27 C           2.9448   -2.9933    0.0739 C.3     1  UNL1        0.0000
     28 C           2.1365   -4.2712    0.4376 C.ar    1  UNL1        0.0000
     29 C           2.2118   -5.4520   -0.3089 C.ar    1  UNL1        0.0000
     30 C           1.4370   -6.5668    0.0233 C.ar    1  UNL1        0.0000
     31 C           0.5877   -6.4912    1.1167 C.ar    1  UNL1        0.0000
     32 C           0.5326   -5.3583    1.9185 C.ar    1  UNL1        0.0000
     33 C           1.3126   -4.2603    1.5768 C.ar    1  UNL1        0.0000
     34 C           3.6441   -3.0928   -1.2939 C.ar    1  UNL1        0.0000
     35 C           5.0184   -2.8746   -1.4304 C.ar    1  UNL1        0.0000
     36 C           5.6426   -2.9274   -2.6796 C.ar    1  UNL1        0.0000
     37 C           4.8740   -3.2044   -3.7995 C.ar    1  UNL1        0.0000
     38 C           3.5050   -3.4337   -3.7049 C.ar    1  UNL1        0.0000
     39 C           2.9007   -3.3738   -2.4546 C.ar    1  UNL1        0.0000
     40 C           3.9583   -2.6746    1.1865 C.ar    1  UNL1        0.0000
     41 C           4.3247   -1.3548    1.4844 C.ar    1  UNL1        0.0000
     42 C           5.3093   -1.0713    2.4266 C.ar    1  UNL1        0.0000
     43 C           5.9376   -2.1308    3.0698 C.ar    1  UNL1        0.0000
     44 C           5.6075   -3.4516    2.7962 C.ar    1  UNL1        0.0000
     45 C           4.6150   -3.7136    1.8524 C.ar    1  UNL1        0.0000
     46 C           2.9947    2.9428   -0.0740 C.3     1  UNL1        0.0000
     47 C           4.0031    2.6064   -1.1859 C.ar    1  UNL1        0.0000
     48 C           4.6793    3.6338   -1.8504 C.ar    1  UNL1        0.0000
     49 C           5.6678    3.3545   -2.7934 C.ar    1  UNL1        0.0000
     50 C           5.9741    2.0281   -3.0677 C.ar    1  UNL1        0.0000
     51 C           5.3260    0.9797   -2.4260 C.ar    1  UNL1        0.0000
     52 C           4.3457    1.2804   -1.4845 C.ar    1  UNL1        0.0000
     53 C           3.6949    3.0306    1.2942 C.ar    1  UNL1        0.0000
     54 C           2.9560    3.3253    2.4543 C.ar    1  UNL1        0.0000
     55 C           3.5604    3.3750    3.7050 C.ar    1  UNL1        0.0000
     56 C           4.9250    3.1213    3.8005 C.ar    1  UNL1        0.0000
     57 C           5.6892    2.8300    2.6812 C.ar    1  UNL1        0.0000
     58 C           5.0649    2.7878    1.4317 C.ar    1  UNL1        0.0000
     59 C           2.2090    4.2345   -0.4387 C.ar    1  UNL1        0.0000
     60 C           1.3858    4.2376   -1.5784 C.ar    1  UNL1        0.0000
     61 C           0.6259    5.3491   -1.9214 C.ar    1  UNL1        0.0000
     62 C           0.7006    6.4814   -1.1203 C.ar    1  UNL1        0.0000
     63 C           1.5501    6.5425   -0.0262 C.ar    1  UNL1        0.0000
     64 C           2.3048    5.4142    0.3072 C.ar    1  UNL1        0.0000
     65 C          -2.8851    3.0096    0.0924 C.3     1  UNL1        0.0000
     66 C          -2.4828    3.9555    1.2405 C.ar    1  UNL1        0.0000
     67 C          -1.1569    4.4068    1.3338 C.ar    1  UNL1        0.0000
     68 C          -0.7633    5.2829    2.3389 C.ar    1  UNL1        0.0000
     69 C          -1.7145    5.7168    3.2564 C.ar    1  UNL1        0.0000
     70 C          -3.0360    5.3039    3.1863 C.ar    1  UNL1        0.0000
     71 C          -3.4120    4.4203    2.1721 C.ar    1  UNL1        0.0000
     72 C          -2.9674    3.7593   -1.2492 C.ar    1  UNL1        0.0000
     73 C          -3.3258    3.0617   -2.4154 C.ar    1  UNL1        0.0000
     74 C          -3.4098    3.7038   -3.6450 C.ar    1  UNL1        0.0000
     75 C          -3.1355    5.0675   -3.7082 C.ar    1  UNL1        0.0000
     76 C          -2.7920    5.7931   -2.5790 C.ar    1  UNL1        0.0000
     77 C          -2.7139    5.1290   -1.3521 C.ar    1  UNL1        0.0000
     78 C          -4.2275    2.3021    0.4170 C.ar    1  UNL1        0.0000
     79 C          -4.2873    1.2210    1.3099 C.ar    1  UNL1        0.0000
     80 C          -5.5024    0.6364    1.6533 C.ar    1  UNL1        0.0000
     81 C          -6.6704    1.1435    1.1028 C.ar    1  UNL1        0.0000
     82 C          -6.6556    2.2213    0.2296 C.ar    1  UNL1        0.0000
     83 C          -5.4297    2.7954   -0.1059 C.ar    1  UNL1        0.0000
     84 C          -2.9363   -2.9602   -0.0923 C.3     1  UNL1        0.0000
     85 C          -2.5513   -3.9133   -1.2403 C.ar    1  UNL1        0.0000
     86 C          -1.2333   -4.3871   -1.3349 C.ar    1  UNL1        0.0000
     87 C          -0.8558   -5.2704   -2.3399 C.ar    1  UNL1        0.0000
     88 C          -1.8154   -5.6890   -3.2558 C.ar    1  UNL1        0.0000
     89 C          -3.1296   -5.2537   -3.1844 C.ar    1  UNL1        0.0000
     90 C          -3.4894   -4.3630   -2.1704 C.ar    1  UNL1        0.0000
     91 C          -3.0318   -3.7083    1.2494 C.ar    1  UNL1        0.0000
     92 C          -3.3773   -3.0043    2.4156 C.ar    1  UNL1        0.0000
     93 C          -3.4726   -3.6448    3.6452 C.ar    1  UNL1        0.0000
     94 C          -3.2230   -5.0132    3.7084 C.ar    1  UNL1        0.0000
     95 C          -2.8927   -5.7448    2.5792 C.ar    1  UNL1        0.0000
     96 C          -2.8029   -5.0823    1.3522 C.ar    1  UNL1        0.0000
     97 C          -4.2659   -2.2288   -0.4170 C.ar    1  UNL1        0.0000
     98 C          -4.3065   -1.1479   -1.3111 C.ar    1  UNL1        0.0000
     99 C          -5.5110   -0.5417   -1.6546 C.ar    1  UNL1        0.0000
    100 C          -6.6877   -1.0268   -1.1028 C.ar    1  UNL1        0.0000
    101 C          -6.6920   -2.1037   -0.2284 C.ar    1  UNL1        0.0000
    102 C          -5.4766   -2.6996    0.1072 C.ar    1  UNL1        0.0000
    103 H           2.8699   -5.5116   -1.1660 H       1  UNL1        0.0000
    104 H           1.4781   -7.4764   -0.5649 H       1  UNL1        0.0000
    105 H          -0.1263   -5.3342    2.7769 H       1  UNL1        0.0000
    106 H           1.2698   -3.3747    2.1951 H       1  UNL1        0.0000
    107 H           5.6213   -2.6572   -0.5587 H       1  UNL1        0.0000
    108 H           6.7090   -2.7630   -2.7850 H       1  UNL1        0.0000
    109 H           2.9326   -3.6492   -4.5999 H       1  UNL1        0.0000
    110 H           1.8332   -3.5384   -2.3840 H       1  UNL1        0.0000
    111 H           3.8321   -0.5222    0.9984 H       1  UNL1        0.0000
    112 H           5.5795   -0.0488    2.6647 H       1  UNL1        0.0000
    113 H           6.1184   -4.2525    3.3184 H       1  UNL1        0.0000
    114 H           4.3506   -4.7418    1.6328 H       1  UNL1        0.0000
    115 H           4.4334    4.6664   -1.6303 H       1  UNL1        0.0000
    116 H           6.1937    4.1463   -3.3145 H       1  UNL1        0.0000
    117 H           5.5778   -0.0474   -2.6646 H       1  UNL1        0.0000
    118 H           3.8373    0.4566   -0.9999 H       1  UNL1        0.0000
    119 H           2.9913    3.6010    4.5995 H       1  UNL1        0.0000
    120 H           6.7525    2.6465    2.7874 H       1  UNL1        0.0000
    121 H           5.6644    2.5591    0.5605 H       1  UNL1        0.0000
    122 H           1.3277    3.3526   -2.1963 H       1  UNL1        0.0000
    123 H          -0.0326    5.3364   -2.7805 H       1  UNL1        0.0000
    124 H           2.9631    5.4626    1.1648 H       1  UNL1        0.0000
    125 H          -0.4174    4.0793    0.6116 H       1  UNL1        0.0000
    126 H           0.2586    5.6338    2.4096 H       1  UNL1        0.0000
    127 H          -3.7522    5.6655    3.9152 H       1  UNL1        0.0000
    128 H          -4.4418    4.0898    2.1184 H       1  UNL1        0.0000
    129 H          -3.5426    2.0027   -2.3563 H       1  UNL1        0.0000
    130 H          -3.6845    3.1692   -4.5473 H       1  UNL1        0.0000
    131 H          -2.5699    6.8509   -2.6562 H       1  UNL1        0.0000
    132 H          -2.4394    5.6999   -0.4755 H       1  UNL1        0.0000
    133 H          -3.3789    0.8290    1.7461 H       1  UNL1        0.0000
    134 H          -5.5506   -0.2161    2.3203 H       1  UNL1        0.0000
    135 H          -7.5862    2.5873   -0.1877 H       1  UNL1        0.0000
    136 H          -5.4143    3.6386   -0.7851 H       1  UNL1        0.0000
    137 H          -0.4874   -4.0716   -0.6139 H       1  UNL1        0.0000
    138 H           0.1600   -5.6385   -2.4116 H       1  UNL1        0.0000
    139 H          -4.5133   -4.0151   -2.1157 H       1  UNL1        0.0000
    140 H          -3.5749   -1.9416    2.3565 H       1  UNL1        0.0000
    141 H          -3.7375   -3.1053    4.5475 H       1  UNL1        0.0000
    142 H          -2.6897   -6.8064    2.6564 H       1  UNL1        0.0000
    143 H          -2.5387   -5.6581    0.4756 H       1  UNL1        0.0000
    144 H          -3.3913   -0.7730   -1.7483 H       1  UNL1        0.0000
    145 H          -5.5441    0.3106   -2.3228 H       1  UNL1        0.0000
    146 H          -5.4761   -3.5421    0.7873 H       1  UNL1        0.0000
    147 H           1.8915    3.5087    2.3830 H       1  UNL1        0.0000
    148 H          -3.8528   -5.6037   -3.9121 H       1  UNL1        0.0000
    149 H          -7.6289   -2.4523    0.1899 H       1  UNL1        0.0000
    150 H           1.6070    7.4515    0.5616 H       1  UNL1        0.0000
@<TRIPOS>BOND
     1     2    10    1
     2     2    14    1
     3     2    12    1
     4     2     8    1
     5     2     1    1
     6     3    13    1
     7     4    65    1
     8     4    11    1
     9     5     9    1
    10     6    27    1
    11     6     7    1
    12     7     1    1
    13     8     6    1
    14     9     1    1
    15    10     5    1
    16    11     1    1
    17    12     4    1
    18    13     1    1
    19    14     3    1
    20    16    50    1
    21    17    62    1
    22    20    37    1
    23    21   100    1
    24    23    88    1
    25    25    75    1
    26    27    28    1
    27    27    40    1
    28    28    33   ar
    29    29    30   ar
    30    29    28   ar
    31    30    31   ar
    32    31    18    1
    33    31    32   ar
    34    32   105    1
    35    33    32   ar
    36    33   106    1
    37    34    27    1
    38    35    34   ar
    39    35   107    1
    40    36    35   ar
    41    37    38   ar
    42    37    36   ar
    43    38    39   ar
    44    39   110    1
    45    39    34   ar
    46    40    41   ar
    47    40    45   ar
    48    41    42   ar
    49    42   112    1
    50    42    43   ar
    51    43    19    1
    52    44    43   ar
    53    44   113    1
    54    45    44   ar
    55    46     5    1
    56    46    53    1
    57    47    46    1
    58    48   115    1
    59    48    47   ar
    60    49    48   ar
    61    50    49   ar
    62    50    51   ar
    63    51    52   ar
    64    52    47   ar
    65    52   118    1
    66    53    58   ar
    67    53    54   ar
    68    54    55   ar
    69    55    56   ar
    70    55   119    1
    71    56    15    1
    72    57   120    1
    73    57    56   ar
    74    58    57   ar
    75    59    46    1
    76    59    64   ar
    77    60    59   ar
    78    61    60   ar
    79    61    62   ar
    80    62    63   ar
    81    63    64   ar
    82    63   150    1
    83    64   124    1
    84    65    78    1
    85    65    66    1
    86    66    67   ar
    87    66    71   ar
    88    67    68   ar
    89    68   126    1
    90    68    69   ar
    91    69    24    1
    92    70    69   ar
    93    70   127    1
    94    71    70   ar
    95    72    65    1
    96    73   129    1
    97    73    72   ar
    98    74    73   ar
    99    75    74   ar
   100    75    76   ar
   101    76    77   ar
   102    77    72   ar
   103    77   132    1
   104    78    79   ar
   105    79    80   ar
   106    79   133    1
   107    80   134    1
   108    81    26    1
   109    81    80   ar
   110    82    81   ar
   111    83    82   ar
   112    83    78   ar
   113    84     3    1
   114    84    91    1
   115    85    84    1
   116    86    85   ar
   117    86   137    1
   118    87    86   ar
   119    88    89   ar
   120    88    87   ar
   121    89    90   ar
   122    90   139    1
   123    90    85   ar
   124    91    96   ar
   125    91    92   ar
   126    92    93   ar
   127    93    94   ar
   128    93   141    1
   129    94    22    1
   130    95   142    1
   131    95    94   ar
   132    96    95   ar
   133    97    84    1
   134    97   102   ar
   135    98    97   ar
   136    99    98   ar
   137    99   100   ar
   138   100   101   ar
   139   101   102   ar
   140   101   149    1
   141   102   146    1
   142   103    29    1
   143   104    30    1
   144   108    36    1
   145   109    38    1
   146   111    41    1
   147   114    45    1
   148   116    49    1
   149   117    51    1
   150   121    58    1
   151   122    60    1
   152   123    61    1
   153   125    67    1
   154   128    71    1
   155   130    74    1
   156   131    76    1
   157   135    82    1
   158   136    83    1
   159   138    87    1
   160   140    92    1
   161   143    96    1
   162   144    98    1
   163   145    99    1
   164   147    54    1
   165   148    89    1
