@<TRIPOS>MOLECULE
RhRh_triPh-O2C4_2_sp
 150 165 0 0 0
SMALL
GASTEIGER

@<TRIPOS>ATOM
      1 Rh         -0.0004   -0.0003   -1.1941 Rh      1  UNL1        0.0000
      2 Rh         -0.0003   -0.0005    1.1926 Rh      1  UNL1        0.0000
      3 C           1.5170   -2.1519   -0.0194 C.3     1  UNL1        0.0000
      4 C          -2.1539   -1.5152    0.0179 C.3     1  UNL1        0.0000
      5 C          -1.5167    2.1521   -0.0193 C.3     1  UNL1        0.0000
      6 C           2.1527    1.5152    0.0181 C.3     1  UNL1        0.0000
      7 O          -1.7055   -1.1571   -1.1135 O.3     1  UNL1        0.0000
      8 O          -1.7145   -1.1057    1.1385 O.3     1  UNL1        0.0000
      9 O          -1.1085    1.7119   -1.1403 O.3     1  UNL1        0.0000
     10 O          -1.1560    1.7055    1.1118 O.3     1  UNL1        0.0000
     11 O           1.7046    1.1569   -1.1132 O.3     1  UNL1        0.0000
     12 O           1.7136    1.1052    1.1388 O.3     1  UNL1        0.0000
     13 O           1.1083   -1.7124   -1.1403 O.3     1  UNL1        0.0000
     14 O           1.1552   -1.7062    1.1118 O.3     1  UNL1        0.0000
     15 C          -3.2547   -2.6051    0.0963 C.3     1  UNL1        0.0000
     16 C          -4.1139   -2.6371   -1.1823 C.ar    1  UNL1        0.0000
     17 C          -5.5108   -2.5926   -1.1129 C.ar    1  UNL1        0.0000
     18 C          -6.2917   -2.6253   -2.2699 C.ar    1  UNL1        0.0000
     19 C          -5.6899   -2.7037   -3.5231 C.ar    1  UNL1        0.0000
     20 C          -4.2976   -2.7741   -3.6056 C.ar    1  UNL1        0.0000
     21 C          -3.5200   -2.7515   -2.4506 C.ar    1  UNL1        0.0000
     22 C          -2.4559   -3.9269    0.2949 C.ar    1  UNL1        0.0000
     23 C          -1.5052   -4.0153    1.3259 C.ar    1  UNL1        0.0000
     24 C          -0.7928   -5.1905    1.5466 C.ar    1  UNL1        0.0000
     25 C          -1.0203   -6.3094    0.7446 C.ar    1  UNL1        0.0000
     26 C          -1.9761   -6.2413   -0.2663 C.ar    1  UNL1        0.0000
     27 C          -2.6889   -5.0601   -0.4911 C.ar    1  UNL1        0.0000
     28 C          -4.1331   -2.3124    1.3249 C.ar    1  UNL1        0.0000
     29 C          -4.5959   -3.3403    2.1481 C.ar    1  UNL1        0.0000
     30 C          -5.4622   -3.0658    3.2090 C.ar    1  UNL1        0.0000
     31 C          -5.8778   -1.7592    3.4567 C.ar    1  UNL1        0.0000
     32 C          -5.4263   -0.7269    2.6311 C.ar    1  UNL1        0.0000
     33 C          -4.5646   -1.0021    1.5741 C.ar    1  UNL1        0.0000
     34 C          -2.6080    3.2513   -0.0970 C.3     1  UNL1        0.0000
     35 C          -2.3154    4.1316   -1.3244 C.ar    1  UNL1        0.0000
     36 C          -1.0051    4.5632   -1.5732 C.ar    1  UNL1        0.0000
     37 C          -0.7299    5.4259   -2.6294 C.ar    1  UNL1        0.0000
     38 C          -1.7622    5.8783   -3.4545 C.ar    1  UNL1        0.0000
     39 C          -3.0688    5.4623   -3.2073 C.ar    1  UNL1        0.0000
     40 C          -3.3434    4.5949   -2.1472 C.ar    1  UNL1        0.0000
     41 C          -2.6410    4.1081    1.1832 C.ar    1  UNL1        0.0000
     42 C          -2.5929    5.5049    1.1170 C.ar    1  UNL1        0.0000
     43 C          -2.6256    6.2832    2.2759 C.ar    1  UNL1        0.0000
     44 C          -2.7079    5.6786    3.5274 C.ar    1  UNL1        0.0000
     45 C          -2.7816    4.2863    3.6067 C.ar    1  UNL1        0.0000
     46 C          -2.7586    3.5114    2.4498 C.ar    1  UNL1        0.0000
     47 C          -3.9286    2.4510   -0.2978 C.ar    1  UNL1        0.0000
     48 C          -5.0630    2.6819    0.4871 C.ar    1  UNL1        0.0000
     49 C          -6.2428    1.9673    0.2606 C.ar    1  UNL1        0.0000
     50 C          -6.3084    1.0122   -0.7510 C.ar    1  UNL1        0.0000
     51 C          -5.1884    0.7870   -1.5521 C.ar    1  UNL1        0.0000
     52 C          -4.0146    1.5010   -1.3296 C.ar    1  UNL1        0.0000
     53 C           3.2533    2.6052    0.0968 C.3     1  UNL1        0.0000
     54 C           4.1323    2.3117    1.3248 C.ar    1  UNL1        0.0000
     55 C           4.5653    1.0015    1.5720 C.ar    1  UNL1        0.0000
     56 C           5.4266    0.7257    2.6291 C.ar    1  UNL1        0.0000
     57 C           5.8765    1.7573    3.4566 C.ar    1  UNL1        0.0000
     58 C           5.4594    3.0637    3.2107 C.ar    1  UNL1        0.0000
     59 C           4.5933    3.3389    2.1498 C.ar    1  UNL1        0.0000
     60 C           4.1115    2.6380   -1.1825 C.ar    1  UNL1        0.0000
     61 C           3.5167    2.7545   -2.4501 C.ar    1  UNL1        0.0000
     62 C           4.2934    2.7780   -3.6058 C.ar    1  UNL1        0.0000
     63 C           5.6857    2.7063   -3.5244 C.ar    1  UNL1        0.0000
     64 C           6.2884    2.6254   -2.2718 C.ar    1  UNL1        0.0000
     65 C           5.5084    2.5919   -1.1142 C.ar    1  UNL1        0.0000
     66 C           2.4544    3.9268    0.2967 C.ar    1  UNL1        0.0000
     67 C           2.6878    5.0609   -0.4879 C.ar    1  UNL1        0.0000
     68 C           1.9747    6.2417   -0.2623 C.ar    1  UNL1        0.0000
     69 C           1.0184    6.3086    0.7481 C.ar    1  UNL1        0.0000
     70 C           0.7904    5.1889    1.5488 C.ar    1  UNL1        0.0000
     71 C           1.5031    4.0140    1.3273 C.ar    1  UNL1        0.0000
     72 C           2.6094   -3.2501   -0.0967 C.3     1  UNL1        0.0000
     73 C           3.9301   -2.4502   -0.2991 C.ar    1  UNL1        0.0000
     74 C           5.0658   -2.6833    0.4835 C.ar    1  UNL1        0.0000
     75 C           6.2463   -1.9706    0.2552 C.ar    1  UNL1        0.0000
     76 C           6.3115   -1.0149   -0.7559 C.ar    1  UNL1        0.0000
     77 C           5.1903   -0.7876   -1.5547 C.ar    1  UNL1        0.0000
     78 C           4.0158   -1.5000   -1.3307 C.ar    1  UNL1        0.0000
     79 C           2.6433   -4.1048    1.1846 C.ar    1  UNL1        0.0000
     80 C           2.7627   -3.5058    2.4499 C.ar    1  UNL1        0.0000
     81 C           2.7861   -4.2786    3.6081 C.ar    1  UNL1        0.0000
     82 C           2.7107   -5.6709    3.5314 C.ar    1  UNL1        0.0000
     83 C           2.6265   -6.2778    2.2811 C.ar    1  UNL1        0.0000
     84 C           2.5935   -5.5016    1.1208 C.ar    1  UNL1        0.0000
     85 C           2.3173   -4.1324   -1.3226 C.ar    1  UNL1        0.0000
     86 C           3.3459   -4.5977   -2.1434 C.ar    1  UNL1        0.0000
     87 C           3.0723   -5.4672   -3.2019 C.ar    1  UNL1        0.0000
     88 C           1.7660   -5.8837   -3.4494 C.ar    1  UNL1        0.0000
     89 C           0.7330   -5.4298   -2.6261 C.ar    1  UNL1        0.0000
     90 C           1.0072   -4.5649   -1.5714 C.ar    1  UNL1        0.0000
     91 H          -6.0001   -2.5197   -0.1510 H       1  UNL1        0.0000
     92 H          -7.3734   -2.5848   -2.1838 H       1  UNL1        0.0000
     93 H          -6.2948   -2.7213   -4.4245 H       1  UNL1        0.0000
     94 H          -3.8118   -2.8535   -4.5736 H       1  UNL1        0.0000
     95 H          -2.4445   -2.8239   -2.5331 H       1  UNL1        0.0000
     96 H          -1.3229   -3.1579    1.9591 H       1  UNL1        0.0000
     97 H          -0.0500   -5.2249    2.3356 H       1  UNL1        0.0000
     98 H          -0.4528   -7.2202    0.9057 H       1  UNL1        0.0000
     99 H          -2.1723   -7.1073   -0.8913 H       1  UNL1        0.0000
    100 H          -3.4304   -5.0282   -1.2790 H       1  UNL1        0.0000
    101 H          -4.2807   -4.3605    1.9624 H       1  UNL1        0.0000
    102 H          -5.8095   -3.8784    3.8400 H       1  UNL1        0.0000
    103 H          -6.5487   -1.5455    4.2833 H       1  UNL1        0.0000
    104 H          -5.7463    0.2962    2.8004 H       1  UNL1        0.0000
    105 H          -4.2331   -0.1905    0.9379 H       1  UNL1        0.0000
    106 H          -0.1935    4.2308   -0.9375 H       1  UNL1        0.0000
    107 H           0.2932    5.7458   -2.7985 H       1  UNL1        0.0000
    108 H          -1.5486    6.5499   -4.2804 H       1  UNL1        0.0000
    109 H          -3.8813    5.8102   -3.8380 H       1  UNL1        0.0000
    110 H          -4.3635    4.2794   -1.9620 H       1  UNL1        0.0000
    111 H          -2.5823    7.3650    2.1925 H       1  UNL1        0.0000
    112 H          -2.7254    6.2814    4.4303 H       1  UNL1        0.0000
    113 H          -2.8638    3.7984    4.5733 H       1  UNL1        0.0000
    114 H          -2.8334    2.4358    2.5296 H       1  UNL1        0.0000
    115 H          -5.0331    3.4228    1.2755 H       1  UNL1        0.0000
    116 H          -7.2181    0.4432   -0.9135 H       1  UNL1        0.0000
    117 H          -5.2209    0.0449   -2.3417 H       1  UNL1        0.0000
    118 H          -3.1562    1.3202   -1.9619 H       1  UNL1        0.0000
    119 H           4.2351    0.1906    0.9344 H       1  UNL1        0.0000
    120 H           5.7476   -0.2972    2.7972 H       1  UNL1        0.0000
    121 H           6.5472    1.5431    4.2832 H       1  UNL1        0.0000
    122 H           5.8054    3.8758    3.8432 H       1  UNL1        0.0000
    123 H           4.2768    4.3589    1.9656 H       1  UNL1        0.0000
    124 H           2.4412    2.8280   -2.5316 H       1  UNL1        0.0000
    125 H           3.8069    2.8592   -4.5731 H       1  UNL1        0.0000
    126 H           6.2899    2.7244   -4.4263 H       1  UNL1        0.0000
    127 H           7.3702    2.5837   -2.1866 H       1  UNL1        0.0000
    128 H           5.9984    2.5172   -0.1529 H       1  UNL1        0.0000
    129 H           3.4296    5.0299   -1.2755 H       1  UNL1        0.0000
    130 H           2.1711    7.1084   -0.8864 H       1  UNL1        0.0000
    131 H           0.4503    7.2191    0.9099 H       1  UNL1        0.0000
    132 H           0.0472    5.2224    2.3374 H       1  UNL1        0.0000
    133 H           1.3204    3.1559    1.9594 H       1  UNL1        0.0000
    134 H           5.0363   -3.4247    1.2715 H       1  UNL1        0.0000
    135 H           7.1141   -2.1668    0.8778 H       1  UNL1        0.0000
    136 H           7.2217   -0.4471   -0.9198 H       1  UNL1        0.0000
    137 H           3.1569   -1.3177   -1.9617 H       1  UNL1        0.0000
    138 H           2.8390   -2.4301    2.5274 H       1  UNL1        0.0000
    139 H           2.8699   -3.7891    4.5738 H       1  UNL1        0.0000
    140 H           2.7290   -6.2721    4.4354 H       1  UNL1        0.0000
    141 H           2.5818   -7.3598    2.1998 H       1  UNL1        0.0000
    142 H           2.5160   -5.9945    0.1611 H       1  UNL1        0.0000
    143 H           4.3659   -4.2818   -1.9579 H       1  UNL1        0.0000
    144 H           3.8854   -5.8164   -3.8312 H       1  UNL1        0.0000
    145 H           1.5531   -6.5571   -4.2742 H       1  UNL1        0.0000
    146 H           0.1949   -4.2317   -0.9370 H       1  UNL1        0.0000
    147 H          -7.1098    2.1617    0.8850 H       1  UNL1        0.0000
    148 H          -0.2900   -5.7504   -2.7952 H       1  UNL1        0.0000
    149 H           5.2225   -0.0451   -2.3441 H       1  UNL1        0.0000
    150 H          -2.5171    5.9963    0.1565 H       1  UNL1        0.0000
@<TRIPOS>BOND
     1     1     9    1
     2     1    13    1
     3     1     7    1
     4     1    11    1
     5     1     2    1
     6     3    14    1
     7     4    15    1
     8     4     8    1
     9     5    10    1
    10     6    53    1
    11     6    12    1
    12     7     4    1
    13     8     2    1
    14     9     5    1
    15    10     2    1
    16    11     6    1
    17    12     2    1
    18    13     3    1
    19    14     2    1
    20    15    22    1
    21    15    28    1
    22    16    17   ar
    23    16    15    1
    24    17    91    1
    25    18    92    1
    26    18    17   ar
    27    19    18   ar
    28    20    19   ar
    29    20    21   ar
    30    21    16   ar
    31    22    23   ar
    32    23    24   ar
    33    23    96    1
    34    24    97    1
    35    25    98    1
    36    25    24   ar
    37    26    25   ar
    38    27    26   ar
    39    27    22   ar
    40    28    33   ar
    41    28    29   ar
    42    29    30   ar
    43    30    31   ar
    44    30   102    1
    45    31   103    1
    46    32   104    1
    47    32    31   ar
    48    33    32   ar
    49    34     5    1
    50    34    41    1
    51    35    34    1
    52    36    35   ar
    53    36   106    1
    54    37    36   ar
    55    38    39   ar
    56    38    37   ar
    57    39    40   ar
    58    40   110    1
    59    40    35   ar
    60    41    46   ar
    61    42    41   ar
    62    42    43   ar
    63    43    44   ar
    64    44    45   ar
    65    44   112    1
    66    45   113    1
    67    46   114    1
    68    46    45   ar
    69    47    34    1
    70    47    48   ar
    71    48   115    1
    72    49    48   ar
    73    49   147    1
    74    50    49   ar
    75    51    52   ar
    76    51    50   ar
    77    52    47   ar
    78    53    66    1
    79    53    54    1
    80    54    55   ar
    81    54    59   ar
    82    55    56   ar
    83    56   120    1
    84    56    57   ar
    85    57   121    1
    86    58    57   ar
    87    58   122    1
    88    59    58   ar
    89    60    65   ar
    90    60    53    1
    91    61    60   ar
    92    62    63   ar
    93    62    61   ar
    94    63    64   ar
    95    64   127    1
    96    64    65   ar
    97    65   128    1
    98    66    71   ar
    99    67    68   ar
   100    67    66   ar
   101    68    69   ar
   102    69   131    1
   103    69    70   ar
   104    70   132    1
   105    71    70   ar
   106    71   133    1
   107    72     3    1
   108    72    79    1
   109    73    72    1
   110    73    74   ar
   111    74   134    1
   112    75    74   ar
   113    75   135    1
   114    76    75   ar
   115    77    78   ar
   116    77    76   ar
   117    78    73   ar
   118    79    80   ar
   119    80   138    1
   120    80    81   ar
   121    81   139    1
   122    82    81   ar
   123    82   140    1
   124    83    82   ar
   125    84    79   ar
   126    84    83   ar
   127    85    72    1
   128    86   143    1
   129    86    85   ar
   130    87    86   ar
   131    88    87   ar
   132    88    89   ar
   133    89    90   ar
   134    90    85   ar
   135    90   146    1
   136    93    19    1
   137    94    20    1
   138    95    21    1
   139    99    26    1
   140   100    27    1
   141   101    29    1
   142   105    33    1
   143   107    37    1
   144   108    38    1
   145   109    39    1
   146   111    43    1
   147   116    50    1
   148   117    51    1
   149   118    52    1
   150   119    55    1
   151   123    59    1
   152   124    61    1
   153   125    62    1
   154   126    63    1
   155   129    67    1
   156   130    68    1
   157   136    76    1
   158   137    78    1
   159   141    83    1
   160   142    84    1
   161   144    87    1
   162   145    88    1
   163   148    89    1
   164   149    77    1
   165   150    42    1
