@<TRIPOS>MOLECULE
RhRh_pFPhMe2-O2C4_20kcal_4_sp
 94 101 0 0 0
SMALL
GASTEIGER

@<TRIPOS>ATOM
      1 Rh          0.0001   -0.9410   -1.3347 Rh      1  UNL1        0.0000
      2 Rh         -0.0001   -0.0400    0.8771 Rh      1  UNL1        0.0000
      3 C          -1.8638    1.2399   -0.9183 C.3     1  UNL1        0.0000
      4 C           1.8632    1.2405   -0.9183 C.3     1  UNL1        0.0000
      5 C           1.9072   -2.1834    0.4515 C.3     1  UNL1        0.0000
      6 C          -1.9065   -2.1841    0.4516 C.3     1  UNL1        0.0000
      7 O           1.4670    0.4243   -1.8121 O.3     1  UNL1        0.0000
      8 O           1.4368    1.2874    0.2784 O.3     1  UNL1        0.0000
      9 O          -1.4669    0.4241   -1.8122 O.3     1  UNL1        0.0000
     10 O          -1.4382    1.2862    0.2787 O.3     1  UNL1        0.0000
     11 O          -1.4515   -2.2657   -0.7363 O.3     1  UNL1        0.0000
     12 O          -1.4792   -1.3971    1.3515 O.3     1  UNL1        0.0000
     13 O           1.4519   -2.2655   -0.7362 O.3     1  UNL1        0.0000
     14 O           1.4803   -1.3959    1.3512 O.3     1  UNL1        0.0000
     15 F          -6.5149    3.3064    2.8982 F       1  UNL1        0.0000
     16 F          -7.7556   -0.5123   -1.2043 F       1  UNL1        0.0000
     17 F           7.7558   -0.5113   -1.2054 F       1  UNL1        0.0000
     18 F           6.5136    3.3053    2.8995 F       1  UNL1        0.0000
     19 C           2.8778    2.3141   -1.3342 C.3     1  UNL1        0.0000
     20 C           3.8222    2.6121   -0.1685 C.ar    1  UNL1        0.0000
     21 C           4.4646    1.5480    0.4825 C.ar    1  UNL1        0.0000
     22 C           5.3671    1.7712    1.5162 C.ar    1  UNL1        0.0000
     23 C           5.6361    3.0806    1.8970 C.ar    1  UNL1        0.0000
     24 C           5.0260    4.1593    1.2762 C.ar    1  UNL1        0.0000
     25 C           4.1177    3.9137    0.2440 C.ar    1  UNL1        0.0000
     26 C          -2.8782    2.3136   -1.3345 C.3     1  UNL1        0.0000
     27 C          -3.8228    2.6120   -0.1689 C.ar    1  UNL1        0.0000
     28 C          -4.1180    3.9137    0.2434 C.ar    1  UNL1        0.0000
     29 C          -5.0265    4.1597    1.2752 C.ar    1  UNL1        0.0000
     30 C          -5.6371    3.0813    1.8960 C.ar    1  UNL1        0.0000
     31 C          -5.3684    1.7717    1.5154 C.ar    1  UNL1        0.0000
     32 C          -4.4657    1.5481    0.4820 C.ar    1  UNL1        0.0000
     33 C          -3.1016   -3.0839    0.8015 C.3     1  UNL1        0.0000
     34 C          -4.3583   -2.3548    0.2850 C.ar    1  UNL1        0.0000
     35 C          -5.4389   -2.0521    1.1220 C.ar    1  UNL1        0.0000
     36 C          -6.5897   -1.4357    0.6276 C.ar    1  UNL1        0.0000
     37 C          -6.6500   -1.1112   -0.7195 C.ar    1  UNL1        0.0000
     38 C          -5.5962   -1.3892   -1.5816 C.ar    1  UNL1        0.0000
     39 C          -4.4563   -2.0057   -1.0722 C.ar    1  UNL1        0.0000
     40 C           3.1024   -3.0832    0.8015 C.3     1  UNL1        0.0000
     41 C           4.3589   -2.3541    0.2846 C.ar    1  UNL1        0.0000
     42 C           4.4567   -2.0051   -1.0727 C.ar    1  UNL1        0.0000
     43 C           5.5965   -1.3885   -1.5823 C.ar    1  UNL1        0.0000
     44 C           6.6504   -1.1103   -0.7203 C.ar    1  UNL1        0.0000
     45 C           6.5903   -1.4348    0.6268 C.ar    1  UNL1        0.0000
     46 C           5.4396   -2.0513    1.1215 C.ar    1  UNL1        0.0000
     47 C          -2.9613   -4.4400    0.0766 C.3     1  UNL1        0.0000
     48 C          -3.1307   -3.3219    2.3179 C.3     1  UNL1        0.0000
     49 C           3.1315   -3.3209    2.3179 C.3     1  UNL1        0.0000
     50 C           2.9620   -4.4394    0.0768 C.3     1  UNL1        0.0000
     51 C           3.6968    1.8408   -2.5510 C.3     1  UNL1        0.0000
     52 C           2.0143    3.5295   -1.7420 C.3     1  UNL1        0.0000
     53 C          -3.6971    1.8401   -2.5513 C.3     1  UNL1        0.0000
     54 C          -2.0144    3.5287   -1.7423 C.3     1  UNL1        0.0000
     55 H           4.2505    0.5253    0.1927 H       1  UNL1        0.0000
     56 H           5.8574    0.9482    2.0211 H       1  UNL1        0.0000
     57 H           5.2568    5.1678    1.6002 H       1  UNL1        0.0000
     58 H           3.6391    4.7613   -0.2314 H       1  UNL1        0.0000
     59 H          -3.6389    4.7611   -0.2321 H       1  UNL1        0.0000
     60 H          -5.2570    5.1683    1.5990 H       1  UNL1        0.0000
     61 H          -5.8590    0.9489    2.0202 H       1  UNL1        0.0000
     62 H          -4.2517    0.5253    0.1924 H       1  UNL1        0.0000
     63 H          -5.3995   -2.2970    2.1758 H       1  UNL1        0.0000
     64 H          -7.4292   -1.2038    1.2731 H       1  UNL1        0.0000
     65 H          -5.6752   -1.1227   -2.6294 H       1  UNL1        0.0000
     66 H          -3.6237   -2.2053   -1.7360 H       1  UNL1        0.0000
     67 H           3.6240   -2.2048   -1.7362 H       1  UNL1        0.0000
     68 H           5.6753   -1.1221   -2.6301 H       1  UNL1        0.0000
     69 H           7.4299   -1.2027    1.2722 H       1  UNL1        0.0000
     70 H           5.4005   -2.2961    2.1753 H       1  UNL1        0.0000
     71 H          -3.8310   -5.0628    0.3031 H       1  UNL1        0.0000
     72 H          -2.8937   -4.3126   -1.0035 H       1  UNL1        0.0000
     73 H          -2.0615   -4.9635    0.4143 H       1  UNL1        0.0000
     74 H          -2.2009   -3.8013    2.6340 H       1  UNL1        0.0000
     75 H          -3.2278   -2.3885    2.8734 H       1  UNL1        0.0000
     76 H          -3.9583   -3.9866    2.5802 H       1  UNL1        0.0000
     77 H           3.9591   -3.9856    2.5802 H       1  UNL1        0.0000
     78 H           3.2288   -2.3874    2.8731 H       1  UNL1        0.0000
     79 H           2.2018   -3.8001    2.6342 H       1  UNL1        0.0000
     80 H           2.8944   -4.3123   -1.0033 H       1  UNL1        0.0000
     81 H           3.8316   -5.0621    0.3035 H       1  UNL1        0.0000
     82 H           2.0621   -4.9628    0.4146 H       1  UNL1        0.0000
     83 H           4.3994    2.6279   -2.8384 H       1  UNL1        0.0000
     84 H           4.2702    0.9439   -2.3095 H       1  UNL1        0.0000
     85 H           3.0441    1.6162   -3.3971 H       1  UNL1        0.0000
     86 H           2.6433    4.3286   -2.1433 H       1  UNL1        0.0000
     87 H           1.3112    3.2337   -2.5250 H       1  UNL1        0.0000
     88 H           1.4476    3.9161   -0.8914 H       1  UNL1        0.0000
     89 H          -4.3995    2.6273   -2.8389 H       1  UNL1        0.0000
     90 H          -3.0443    1.6153   -3.3972 H       1  UNL1        0.0000
     91 H          -4.2707    0.9434   -2.3096 H       1  UNL1        0.0000
     92 H          -2.6432    4.3278   -2.1438 H       1  UNL1        0.0000
     93 H          -1.4478    3.9153   -0.8917 H       1  UNL1        0.0000
     94 H          -1.3113    3.2326   -2.5252 H       1  UNL1        0.0000
@<TRIPOS>BOND
     1     1    11    1
     2     1    13    1
     3     1     2    1
     4     2    14    1
     5     2    12    1
     6     3    10    1
     7     4     8    1
     8     5    40    1
     9     5    14    1
    10     6    33    1
    11     6    12    1
    12     7     1    1
    13     7     4    1
    14     8     2    1
    15     9     1    1
    16     9     3    1
    17    10     2    1
    18    11     6    1
    19    13     5    1
    20    16    37    1
    21    17    44    1
    22    19     4    1
    23    19    20    1
    24    20    25   ar
    25    20    21   ar
    26    21    22   ar
    27    22    23   ar
    28    22    56    1
    29    23    18    1
    30    24    57    1
    31    24    23   ar
    32    25    24   ar
    33    26     3    1
    34    26    27    1
    35    27    28   ar
    36    27    32   ar
    37    28    29   ar
    38    29    60    1
    39    29    30   ar
    40    30    15    1
    41    31    30   ar
    42    31    61    1
    43    32    31   ar
    44    33    48    1
    45    34    33    1
    46    34    35   ar
    47    35    63    1
    48    36    35   ar
    49    36    64    1
    50    37    36   ar
    51    38    39   ar
    52    38    37   ar
    53    39    34   ar
    54    40    49    1
    55    41    40    1
    56    41    46   ar
    57    42    41   ar
    58    43    42   ar
    59    43    44   ar
    60    44    45   ar
    61    45    46   ar
    62    45    69    1
    63    46    70    1
    64    47    71    1
    65    47    73    1
    66    47    33    1
    67    48    76    1
    68    48    74    1
    69    48    75    1
    70    49    77    1
    71    49    79    1
    72    49    78    1
    73    50    81    1
    74    50    82    1
    75    50    40    1
    76    51    84    1
    77    51    19    1
    78    52    19    1
    79    52    88    1
    80    53    91    1
    81    53    26    1
    82    54    26    1
    83    54    93    1
    84    55    21    1
    85    58    25    1
    86    59    28    1
    87    62    32    1
    88    65    38    1
    89    66    39    1
    90    67    42    1
    91    68    43    1
    92    72    47    1
    93    80    50    1
    94    83    51    1
    95    85    51    1
    96    86    52    1
    97    87    52    1
    98    89    53    1
    99    90    53    1
   100    92    54    1
   101    94    54    1
