@<TRIPOS>MOLECULE
RhRh_triPh-O2C4_12_sp
 150 165 0 0 0
SMALL
GASTEIGER

@<TRIPOS>ATOM
      1 Rh         -0.0361    0.2187    1.1850 Rh      1  UNL1        0.0000
      2 Rh          0.0008    0.2341   -1.1999 Rh      1  UNL1        0.0000
      3 C           1.8886    2.0321    0.0253 C.3     1  UNL1        0.0000
      4 C          -2.0121    1.9483   -0.0179 C.3     1  UNL1        0.0000
      5 C          -1.7741   -1.7580   -0.0134 C.3     1  UNL1        0.0000
      6 C           1.9018   -1.5899   -0.0148 C.3     1  UNL1        0.0000
      7 O          -1.5979    1.5511    1.1138 O.3     1  UNL1        0.0000
      8 O          -1.5003    1.6286   -1.1376 O.3     1  UNL1        0.0000
      9 O          -1.3708   -1.3281    1.1143 O.3     1  UNL1        0.0000
     10 O          -1.4109   -1.2897   -1.1360 O.3     1  UNL1        0.0000
     11 O           1.4966   -1.1652    1.1094 O.3     1  UNL1        0.0000
     12 O           1.5158   -1.1419   -1.1415 O.3     1  UNL1        0.0000
     13 O           1.3347    1.7486    1.1354 O.3     1  UNL1        0.0000
     14 O           1.4612    1.6674   -1.1116 O.3     1  UNL1        0.0000
     15 C          -3.2295    2.9032   -0.0926 C.3     1  UNL1        0.0000
     16 C          -3.6356    3.4054    1.3070 C.ar    1  UNL1        0.0000
     17 C          -3.9304    2.4775    2.3169 C.ar    1  UNL1        0.0000
     18 C          -4.3740    2.8936    3.5673 C.ar    1  UNL1        0.0000
     19 C          -4.5481    4.2537    3.8351 C.ar    1  UNL1        0.0000
     20 C          -4.2761    5.1833    2.8361 C.ar    1  UNL1        0.0000
     21 C          -3.8245    4.7622    1.5819 C.ar    1  UNL1        0.0000
     22 C          -2.7578    4.0595   -0.9970 C.ar    1  UNL1        0.0000
     23 C          -1.6049    4.7637   -0.6186 C.ar    1  UNL1        0.0000
     24 C          -1.1102    5.7994   -1.4039 C.ar    1  UNL1        0.0000
     25 C          -1.7677    6.1539   -2.5852 C.ar    1  UNL1        0.0000
     26 C          -2.9150    5.4623   -2.9645 C.ar    1  UNL1        0.0000
     27 C          -3.4074    4.4175   -2.1765 C.ar    1  UNL1        0.0000
     28 C          -4.4352    2.1482   -0.7096 C.ar    1  UNL1        0.0000
     29 C          -5.7176    2.6834   -0.5207 C.ar    1  UNL1        0.0000
     30 C          -6.8371    2.0831   -1.0921 C.ar    1  UNL1        0.0000
     31 C          -6.7005    0.9231   -1.8543 C.ar    1  UNL1        0.0000
     32 C          -5.4337    0.3774   -2.0403 C.ar    1  UNL1        0.0000
     33 C          -4.3105    0.9854   -1.4798 C.ar    1  UNL1        0.0000
     34 C          -2.8132   -2.9125    0.0555 C.3     1  UNL1        0.0000
     35 C          -2.4241   -3.7817    1.2699 C.ar    1  UNL1        0.0000
     36 C          -3.3445   -4.1496    2.2507 C.ar    1  UNL1        0.0000
     37 C          -2.9554   -4.9637    3.3189 C.ar    1  UNL1        0.0000
     38 C          -1.6431   -5.4184    3.4169 C.ar    1  UNL1        0.0000
     39 C          -0.7178   -5.0621    2.4319 C.ar    1  UNL1        0.0000
     40 C          -1.1077   -4.2558    1.3685 C.ar    1  UNL1        0.0000
     41 C          -2.8296   -3.7553   -1.2354 C.ar    1  UNL1        0.0000
     42 C          -2.9734   -3.1462   -2.4922 C.ar    1  UNL1        0.0000
     43 C          -3.0610   -3.9113   -3.6523 C.ar    1  UNL1        0.0000
     44 C          -3.0387   -5.3063   -3.5832 C.ar    1  UNL1        0.0000
     45 C          -2.9326   -5.9218   -2.3389 C.ar    1  UNL1        0.0000
     46 C          -2.8255   -5.1528   -1.1781 C.ar    1  UNL1        0.0000
     47 C          -4.2067   -2.2642    0.2707 C.ar    1  UNL1        0.0000
     48 C          -4.3734   -1.1629    1.1213 C.ar    1  UNL1        0.0000
     49 C          -5.6400   -0.6366    1.3683 C.ar    1  UNL1        0.0000
     50 C          -6.7668   -1.2086    0.7825 C.ar    1  UNL1        0.0000
     51 C          -6.6150   -2.3140   -0.0516 C.ar    1  UNL1        0.0000
     52 C          -5.3470   -2.8347   -0.3082 C.ar    1  UNL1        0.0000
     53 C           2.9041   -2.7764   -0.0727 C.3     1  UNL1        0.0000
     54 C           3.9427   -2.4505   -1.1624 C.ar    1  UNL1        0.0000
     55 C           4.3591   -3.4023   -2.0944 C.ar    1  UNL1        0.0000
     56 C           5.3452   -3.0906   -3.0340 C.ar    1  UNL1        0.0000
     57 C           5.9274   -1.8251   -3.0512 C.ar    1  UNL1        0.0000
     58 C           5.5249   -0.8715   -2.1134 C.ar    1  UNL1        0.0000
     59 C           4.5449   -1.1853   -1.1767 C.ar    1  UNL1        0.0000
     60 C           3.5859   -2.9879    1.2918 C.ar    1  UNL1        0.0000
     61 C           2.8142   -3.1638    2.4531 C.ar    1  UNL1        0.0000
     62 C           3.4205   -3.3781    3.6874 C.ar    1  UNL1        0.0000
     63 C           4.8128   -3.4420    3.7897 C.ar    1  UNL1        0.0000
     64 C           5.5853   -3.3007    2.6405 C.ar    1  UNL1        0.0000
     65 C           4.9761   -3.0753    1.4036 C.ar    1  UNL1        0.0000
     66 C           2.0669   -4.0239   -0.4737 C.ar    1  UNL1        0.0000
     67 C           2.2289   -5.2481    0.1852 C.ar    1  UNL1        0.0000
     68 C           1.4940   -6.3708   -0.2029 C.ar    1  UNL1        0.0000
     69 C           0.5891   -6.2920   -1.2582 C.ar    1  UNL1        0.0000
     70 C           0.4412   -5.0851   -1.9414 C.ar    1  UNL1        0.0000
     71 C           1.1761   -3.9671   -1.5584 C.ar    1  UNL1        0.0000
     72 C           3.1952    2.8655    0.1070 C.3     1  UNL1        0.0000
     73 C           4.2988    1.9494    0.7107 C.ar    1  UNL1        0.0000
     74 C           5.6190    2.0506    0.2495 C.ar    1  UNL1        0.0000
     75 C           6.6263    1.2402    0.7746 C.ar    1  UNL1        0.0000
     76 C           6.3365    0.3106    1.7715 C.ar    1  UNL1        0.0000
     77 C           5.0354    0.2237    2.2626 C.ar    1  UNL1        0.0000
     78 C           4.0317    1.0425    1.7483 C.ar    1  UNL1        0.0000
     79 C           3.6218    3.3341   -1.2971 C.ar    1  UNL1        0.0000
     80 C           3.8411    2.3839   -2.3083 C.ar    1  UNL1        0.0000
     81 C           4.2894    2.7702   -3.5662 C.ar    1  UNL1        0.0000
     82 C           4.5347    4.1179   -3.8437 C.ar    1  UNL1        0.0000
     83 C           4.3327    5.0662   -2.8458 C.ar    1  UNL1        0.0000
     84 C           3.8827    4.6762   -1.5806 C.ar    1  UNL1        0.0000
     85 C           2.8865    4.0554    1.0301 C.ar    1  UNL1        0.0000
     86 C           3.7246    4.4380    2.0758 C.ar    1  UNL1        0.0000
     87 C           3.4035    5.5445    2.8678 C.ar    1  UNL1        0.0000
     88 C           2.2428    6.2748    2.6244 C.ar    1  UNL1        0.0000
     89 C           1.4017    5.9003    1.5729 C.ar    1  UNL1        0.0000
     90 C           1.7279    4.8040    0.7823 C.ar    1  UNL1        0.0000
     91 H          -3.8050    1.4231    2.1185 H       1  UNL1        0.0000
     92 H          -4.5863    2.1540    4.3336 H       1  UNL1        0.0000
     93 H          -4.8958    4.5805    4.8103 H       1  UNL1        0.0000
     94 H          -4.4152    6.2438    3.0236 H       1  UNL1        0.0000
     95 H          -3.6268    5.5011    0.8157 H       1  UNL1        0.0000
     96 H          -1.0992    4.4942    0.3037 H       1  UNL1        0.0000
     97 H          -0.2107    6.3262   -1.1002 H       1  UNL1        0.0000
     98 H          -1.3841    6.9600   -3.2027 H       1  UNL1        0.0000
     99 H          -3.4320    5.7274   -3.8818 H       1  UNL1        0.0000
    100 H          -4.2933    3.8789   -2.4890 H       1  UNL1        0.0000
    101 H          -5.8391    3.5780    0.0789 H       1  UNL1        0.0000
    102 H          -7.8179    2.5212   -0.9330 H       1  UNL1        0.0000
    103 H          -7.5731    0.4438   -2.2868 H       1  UNL1        0.0000
    104 H          -5.3114   -0.5406   -2.6057 H       1  UNL1        0.0000
    105 H          -3.3408    0.5405   -1.6475 H       1  UNL1        0.0000
    106 H          -4.3678   -3.8001    2.1898 H       1  UNL1        0.0000
    107 H          -3.6857   -5.2372    4.0745 H       1  UNL1        0.0000
    108 H          -1.3417   -6.0471    4.2493 H       1  UNL1        0.0000
    109 H           0.3075   -5.4132    2.4826 H       1  UNL1        0.0000
    110 H          -0.3831   -3.9992    0.6051 H       1  UNL1        0.0000
    111 H          -3.1602   -3.4146   -4.6129 H       1  UNL1        0.0000
    112 H          -3.1145   -5.9020   -4.4878 H       1  UNL1        0.0000
    113 H          -2.9279   -7.0050   -2.2625 H       1  UNL1        0.0000
    114 H          -2.7359   -5.6512   -0.2222 H       1  UNL1        0.0000
    115 H          -3.5079   -0.7213    1.5986 H       1  UNL1        0.0000
    116 H          -7.7508   -0.7904    0.9679 H       1  UNL1        0.0000
    117 H          -7.4836   -2.7744   -0.5130 H       1  UNL1        0.0000
    118 H          -5.2477   -3.6951   -0.9576 H       1  UNL1        0.0000
    119 H           3.9137   -4.3898   -2.0927 H       1  UNL1        0.0000
    120 H           5.6536   -3.8431   -3.7536 H       1  UNL1        0.0000
    121 H           6.6905   -1.5831   -3.7847 H       1  UNL1        0.0000
    122 H           5.9700    0.1177   -2.1033 H       1  UNL1        0.0000
    123 H           4.2579   -0.4429   -0.4419 H       1  UNL1        0.0000
    124 H           1.7344   -3.1381    2.3909 H       1  UNL1        0.0000
    125 H           2.8015   -3.5029    4.5709 H       1  UNL1        0.0000
    126 H           5.2847   -3.6107    4.7529 H       1  UNL1        0.0000
    127 H           6.6680   -3.3614    2.6979 H       1  UNL1        0.0000
    128 H           5.5957   -2.9586    0.5244 H       1  UNL1        0.0000
    129 H           2.9279   -5.3305    1.0072 H       1  UNL1        0.0000
    130 H           1.6306   -7.3060    0.3317 H       1  UNL1        0.0000
    131 H           0.0016   -7.1577   -1.5467 H       1  UNL1        0.0000
    132 H          -0.2612   -5.0046   -2.7633 H       1  UNL1        0.0000
    133 H           1.0543   -3.0413   -2.1021 H       1  UNL1        0.0000
    134 H           5.8626    2.7578   -0.5329 H       1  UNL1        0.0000
    135 H           7.6374    1.3324    0.3897 H       1  UNL1        0.0000
    136 H           7.1121   -0.3415    2.1603 H       1  UNL1        0.0000
    137 H           3.0327    0.9601    2.1470 H       1  UNL1        0.0000
    138 H           3.6657    1.3354   -2.1087 H       1  UNL1        0.0000
    139 H           4.4503    2.0145   -4.3292 H       1  UNL1        0.0000
    140 H           4.8845    4.4205   -4.8261 H       1  UNL1        0.0000
    141 H           4.5275    6.1163   -3.0418 H       1  UNL1        0.0000
    142 H           3.7425    5.4277   -0.8139 H       1  UNL1        0.0000
    143 H           4.6254    3.8716    2.2795 H       1  UNL1        0.0000
    144 H           4.0647    5.8288    3.6809 H       1  UNL1        0.0000
    145 H           1.9921    7.1280    3.2471 H       1  UNL1        0.0000
    146 H           1.0853    4.5230   -0.0454 H       1  UNL1        0.0000
    147 H          -5.7437    0.2338    2.0069 H       1  UNL1        0.0000
    148 H           0.4918    6.4585    1.3727 H       1  UNL1        0.0000
    149 H           4.7889   -0.4979    3.0338 H       1  UNL1        0.0000
    150 H          -3.0193   -2.0684   -2.5615 H       1  UNL1        0.0000
@<TRIPOS>BOND
     1     2    12    1
     2     2     8    1
     3     2    10    1
     4     2    14    1
     5     2     1    1
     6     3    72    1
     7     3    13    1
     8     4     7    1
     9     5    34    1
    10     5     9    1
    11     6    11    1
    12     7     1    1
    13     8     4    1
    14     9     1    1
    15    10     5    1
    16    11     1    1
    17    12     6    1
    18    13     1    1
    19    14     3    1
    20    15     4    1
    21    15    16    1
    22    16    21   ar
    23    16    17   ar
    24    17    18   ar
    25    18    19   ar
    26    18    92    1
    27    19    93    1
    28    20    94    1
    29    20    19   ar
    30    21    20   ar
    31    22    23   ar
    32    22    15    1
    33    23    96    1
    34    24    97    1
    35    24    23   ar
    36    25    24   ar
    37    26    25   ar
    38    26    27   ar
    39    27    22   ar
    40    28    29   ar
    41    28    15    1
    42    29   101    1
    43    30   102    1
    44    30    29   ar
    45    31    30   ar
    46    32    31   ar
    47    32    33   ar
    48    33    28   ar
    49    34    47    1
    50    34    35    1
    51    35    40   ar
    52    35    36   ar
    53    36    37   ar
    54    37    38   ar
    55    37   107    1
    56    38   108    1
    57    39   109    1
    58    39    38   ar
    59    40    39   ar
    60    41    46   ar
    61    41    34    1
    62    42    41   ar
    63    43    44   ar
    64    43    42   ar
    65    44    45   ar
    66    45   113    1
    67    45    46   ar
    68    46   114    1
    69    47    48   ar
    70    48    49   ar
    71    48   115    1
    72    49   147    1
    73    50   116    1
    74    50    49   ar
    75    51    50   ar
    76    52    51   ar
    77    52    47   ar
    78    53     6    1
    79    53    60    1
    80    54    53    1
    81    55   119    1
    82    55    54   ar
    83    56    55   ar
    84    57    56   ar
    85    57    58   ar
    86    58   122    1
    87    58    59   ar
    88    59    54   ar
    89    59   123    1
    90    60    65   ar
    91    60    61   ar
    92    61    62   ar
    93    62    63   ar
    94    62   125    1
    95    63   126    1
    96    64   127    1
    97    64    63   ar
    98    65    64   ar
    99    66    53    1
   100    66    67   ar
   101    67   129    1
   102    68    67   ar
   103    68   130    1
   104    69    68   ar
   105    70    71   ar
   106    70    69   ar
   107    71    66   ar
   108    72    73    1
   109    72    85    1
   110    73    78   ar
   111    74    73   ar
   112    74    75   ar
   113    75    76   ar
   114    76   136    1
   115    76    77   ar
   116    77   149    1
   117    78   137    1
   118    78    77   ar
   119    79    72    1
   120    80   138    1
   121    80    79   ar
   122    81    80   ar
   123    82    81   ar
   124    82    83   ar
   125    83    84   ar
   126    84    79   ar
   127    84   142    1
   128    85    86   ar
   129    86   143    1
   130    86    87   ar
   131    87   144    1
   132    88    87   ar
   133    88   145    1
   134    89    88   ar
   135    90    85   ar
   136    90    89   ar
   137    91    17    1
   138    95    21    1
   139    98    25    1
   140    99    26    1
   141   100    27    1
   142   103    31    1
   143   104    32    1
   144   105    33    1
   145   106    36    1
   146   110    40    1
   147   111    43    1
   148   112    44    1
   149   117    51    1
   150   118    52    1
   151   120    56    1
   152   121    57    1
   153   124    61    1
   154   128    65    1
   155   131    69    1
   156   132    70    1
   157   133    71    1
   158   134    74    1
   159   135    75    1
   160   139    81    1
   161   140    82    1
   162   141    83    1
   163   146    90    1
   164   148    89    1
   165   150    42    1
