@<TRIPOS>MOLECULE
RhRh_tBu-O2C4_C4_sp
 66 69 0 0 0
SMALL
GASTEIGER

@<TRIPOS>ATOM
      1 Rh          0.0001   -0.0552    1.2014 Rh      1  UNL1        0.0000
      2 Rh          0.0001   -0.0374   -1.1856 Rh      1  UNL1        0.0000
      3 C           1.9050   -1.8715   -0.0083 C.3     1  UNL1        0.0000
      4 C           1.8765    1.8109    0.0257 C.3     1  UNL1        0.0000
      5 C          -1.8767    1.8106    0.0257 C.3     1  UNL1        0.0000
      6 C          -1.9047   -1.8717   -0.0081 C.3     1  UNL1        0.0000
      7 O           1.4579    1.3954    1.1527 O.3     1  UNL1        0.0000
      8 O           1.4587    1.4098   -1.1095 O.3     1  UNL1        0.0000
      9 O          -1.4590    1.3941    1.1527 O.3     1  UNL1        0.0000
     10 O           1.4670   -1.4926    1.1261 O.3     1  UNL1        0.0000
     11 O          -1.4656   -1.4938    1.1261 O.3     1  UNL1        0.0000
     12 O          -1.4577    1.4108   -1.1094 O.3     1  UNL1        0.0000
     13 O          -1.4655   -1.4774   -1.1358 O.3     1  UNL1        0.0000
     14 O           1.4647   -1.4784   -1.1359 O.3     1  UNL1        0.0000
     15 C           2.9759    2.8756    0.0080 C.3     1  UNL1        0.0000
     16 C          -2.9763    2.8751    0.0080 C.3     1  UNL1        0.0000
     17 C           3.1085   -2.8166   -0.0093 C.3     1  UNL1        0.0000
     18 C          -3.1084   -2.8166   -0.0092 C.3     1  UNL1        0.0000
     19 C           3.0287   -3.7740    1.1901 C.3     1  UNL1        0.0000
     20 C           3.1729   -3.6060   -1.3246 C.3     1  UNL1        0.0000
     21 C           4.3525   -1.9070    0.1231 C.3     1  UNL1        0.0000
     22 C           2.4407    4.0934   -0.7722 C.3     1  UNL1        0.0000
     23 C           3.3649    3.2850    1.4339 C.3     1  UNL1        0.0000
     24 C           4.1930    2.2762   -0.7265 C.3     1  UNL1        0.0000
     25 C          -4.1924    2.2762   -0.7285 C.3     1  UNL1        0.0000
     26 C          -2.4404    4.0939   -0.7702 C.3     1  UNL1        0.0000
     27 C          -3.3669    3.2828    1.4339 C.3     1  UNL1        0.0000
     28 C          -4.3524   -1.9064    0.1191 C.3     1  UNL1        0.0000
     29 C          -3.0310   -3.7716    1.1922 C.3     1  UNL1        0.0000
     30 C          -3.1706   -3.6085   -1.3231 C.3     1  UNL1        0.0000
     31 H           2.1419   -4.4122    1.1251 H       1  UNL1        0.0000
     32 H           3.9119   -4.4204    1.2040 H       1  UNL1        0.0000
     33 H           2.9810   -3.2237    2.1312 H       1  UNL1        0.0000
     34 H           3.2375   -2.9373   -2.1847 H       1  UNL1        0.0000
     35 H           4.0529   -4.2569   -1.3184 H       1  UNL1        0.0000
     36 H           2.2856   -4.2333   -1.4514 H       1  UNL1        0.0000
     37 H           4.4152   -1.2089   -0.7172 H       1  UNL1        0.0000
     38 H           4.3156   -1.3316    1.0525 H       1  UNL1        0.0000
     39 H           5.2598   -2.5193    0.1300 H       1  UNL1        0.0000
     40 H           3.2131    4.8670   -0.8261 H       1  UNL1        0.0000
     41 H           2.1542    3.8105   -1.7871 H       1  UNL1        0.0000
     42 H           1.5651    4.5238   -0.2746 H       1  UNL1        0.0000
     43 H           2.5105    3.6993    1.9745 H       1  UNL1        0.0000
     44 H           3.7375    2.4306    2.0038 H       1  UNL1        0.0000
     45 H           4.1516    4.0452    1.3936 H       1  UNL1        0.0000
     46 H           3.9246    1.9728   -1.7408 H       1  UNL1        0.0000
     47 H           4.9946    3.0193   -0.7817 H       1  UNL1        0.0000
     48 H           4.5790    1.4004   -0.1947 H       1  UNL1        0.0000
     49 H          -4.5788    1.3998   -0.1980 H       1  UNL1        0.0000
     50 H          -4.9942    3.0192   -0.7837 H       1  UNL1        0.0000
     51 H          -3.9228    1.9740   -1.7428 H       1  UNL1        0.0000
     52 H          -3.2130    4.8673   -0.8242 H       1  UNL1        0.0000
     53 H          -1.5656    4.5239   -0.2712 H       1  UNL1        0.0000
     54 H          -2.1528    3.8121   -1.7851 H       1  UNL1        0.0000
     55 H          -4.1537    4.0429    1.3936 H       1  UNL1        0.0000
     56 H          -3.7399    2.4277    2.0026 H       1  UNL1        0.0000
     57 H          -2.5131    3.6968    1.9759 H       1  UNL1        0.0000
     58 H          -4.4135   -1.2101   -0.7228 H       1  UNL1        0.0000
     59 H          -5.2598   -2.5184    0.1258 H       1  UNL1        0.0000
     60 H          -4.3170   -1.3290    1.0474 H       1  UNL1        0.0000
     61 H          -3.9143   -4.4179    1.2055 H       1  UNL1        0.0000
     62 H          -2.1442   -4.4100    1.1302 H       1  UNL1        0.0000
     63 H          -2.9852   -3.2195    2.1323 H       1  UNL1        0.0000
     64 H          -2.2832   -4.2364   -1.4469 H       1  UNL1        0.0000
     65 H          -4.0508   -4.2591   -1.3174 H       1  UNL1        0.0000
     66 H          -3.2332   -2.9415   -2.1846 H       1  UNL1        0.0000
@<TRIPOS>BOND
     1     2    14    1
     2     2    13    1
     3     2     8    1
     4     2    12    1
     5     2     1    1
     6     3    10    1
     7     4     7    1
     8     5     9    1
     9     6    11    1
    10     7     1    1
    11     8     4    1
    12     9     1    1
    13    10     1    1
    14    11     1    1
    15    12     5    1
    16    13     6    1
    17    14     3    1
    18    15     4    1
    19    15    23    1
    20    16     5    1
    21    16    27    1
    22    17     3    1
    23    17    21    1
    24    17    19    1
    25    18     6    1
    26    18    28    1
    27    18    29    1
    28    19    32    1
    29    19    33    1
    30    20    35    1
    31    20    17    1
    32    21    39    1
    33    21    38    1
    34    22    42    1
    35    22    15    1
    36    23    43    1
    37    23    44    1
    38    24    48    1
    39    24    15    1
    40    25    49    1
    41    25    16    1
    42    26    53    1
    43    26    16    1
    44    27    57    1
    45    27    56    1
    46    28    59    1
    47    28    60    1
    48    29    61    1
    49    29    63    1
    50    30    65    1
    51    30    18    1
    52    31    19    1
    53    34    20    1
    54    36    20    1
    55    37    21    1
    56    40    22    1
    57    41    22    1
    58    45    23    1
    59    46    24    1
    60    47    24    1
    61    50    25    1
    62    51    25    1
    63    52    26    1
    64    54    26    1
    65    55    27    1
    66    58    28    1
    67    62    29    1
    68    64    30    1
    69    66    30    1
