@<TRIPOS>MOLECULE
RhRh_EtEtiPr-O2C4_6_sp
 114 117 0 0 0
SMALL
GASTEIGER

@<TRIPOS>ATOM
      1 Rh          0.0771   -0.1213    1.1424 Rh      1  UNL1        0.0000
      2 Rh          0.0272   -0.1466   -1.2346 Rh      1  UNL1        0.0000
      3 C          -2.4865    0.6238   -0.0129 C.3     1  UNL1        0.0000
      4 C          -0.7003   -2.6674   -0.0137 C.3     1  UNL1        0.0000
      5 C           2.6153   -0.7991   -0.0676 C.3     1  UNL1        0.0000
      6 C           0.7042    2.4352   -0.0953 C.3     1  UNL1        0.0000
      7 O          -0.6259   -2.0587    1.1028 O.3     1  UNL1        0.0000
      8 O          -0.3907   -2.1557   -1.1413 O.3     1  UNL1        0.0000
      9 O          -1.8523    0.5942    1.0925 O.3     1  UNL1        0.0000
     10 O          -1.9881    0.2720   -1.1335 O.3     1  UNL1        0.0000
     11 O           2.0147   -0.8072    1.0586 O.3     1  UNL1        0.0000
     12 O           2.0532   -0.5284   -1.1786 O.3     1  UNL1        0.0000
     13 O           0.7625    1.8249    1.0233 O.3     1  UNL1        0.0000
     14 O           0.3965    1.8760   -1.1986 O.3     1  UNL1        0.0000
     15 C          -1.1791   -4.1213   -0.0341 C.3     1  UNL1        0.0000
     16 C          -0.0096   -4.9608   -0.6271 C.3     1  UNL1        0.0000
     17 C           1.2752   -4.9494    0.2028 C.3     1  UNL1        0.0000
     18 C          -2.4618   -4.2362   -0.9471 C.3     1  UNL1        0.0000
     19 C          -3.4049   -3.0280   -0.8177 C.3     1  UNL1        0.0000
     20 C          -2.1850   -4.4620   -2.4412 C.3     1  UNL1        0.0000
     21 C          -1.4637   -4.6443    1.3983 C.3     1  UNL1        0.0000
     22 C          -2.6959   -4.1316    2.1481 C.3     1  UNL1        0.0000
     23 C          -3.9150    1.1860   -0.0174 C.3     1  UNL1        0.0000
     24 C          -4.7058    0.4967   -1.1649 C.3     1  UNL1        0.0000
     25 C          -6.1243    1.0206   -1.4018 C.3     1  UNL1        0.0000
     26 C          -4.6399    0.9752    1.3560 C.3     1  UNL1        0.0000
     27 C          -4.6897   -0.4984    1.7860 C.3     1  UNL1        0.0000
     28 C          -4.1368    1.8397    2.5251 C.3     1  UNL1        0.0000
     29 C          -3.7692    2.7154   -0.2971 C.3     1  UNL1        0.0000
     30 C          -3.2516    3.1118   -1.6814 C.3     1  UNL1        0.0000
     31 C           4.1138   -1.1403   -0.0677 C.3     1  UNL1        0.0000
     32 C           4.2539   -2.6736    0.1877 C.3     1  UNL1        0.0000
     33 C           3.9587   -3.1763    1.6032 C.3     1  UNL1        0.0000
     34 C           4.7798   -0.3220    1.0916 C.3     1  UNL1        0.0000
     35 C           6.2748   -0.6175    1.2698 C.3     1  UNL1        0.0000
     36 C           4.5508    1.1873    0.9538 C.3     1  UNL1        0.0000
     37 C           4.7425   -0.7824   -1.4402 C.3     1  UNL1        0.0000
     38 C           4.4083   -1.7006   -2.6223 C.3     1  UNL1        0.0000
     39 C           1.0743    3.9262   -0.1350 C.3     1  UNL1        0.0000
     40 C           0.3831    4.5607   -1.3756 C.3     1  UNL1        0.0000
     41 C           0.7230    6.0271   -1.6526 C.3     1  UNL1        0.0000
     42 C           2.6237    3.9968   -0.2853 C.3     1  UNL1        0.0000
     43 C           3.2005    3.4019   -1.5722 C.3     1  UNL1        0.0000
     44 C           0.6308    4.6639    1.1760 C.3     1  UNL1        0.0000
     45 C          -0.8635    4.4784    1.4803 C.3     1  UNL1        0.0000
     46 C           1.4588    4.3584    2.4355 C.3     1  UNL1        0.0000
     47 H          -0.3642   -5.9912   -0.7489 H       1  UNL1        0.0000
     48 H           0.2175   -4.5797   -1.6238 H       1  UNL1        0.0000
     49 H           1.1650   -5.4730    1.1556 H       1  UNL1        0.0000
     50 H           1.5912   -3.9270    0.4240 H       1  UNL1        0.0000
     51 H           2.0874   -5.4340   -0.3477 H       1  UNL1        0.0000
     52 H          -2.9893   -5.1245   -0.5738 H       1  UNL1        0.0000
     53 H          -3.6038   -2.7500    0.2161 H       1  UNL1        0.0000
     54 H          -4.3648   -3.2509   -1.2949 H       1  UNL1        0.0000
     55 H          -2.9786   -2.1575   -1.3221 H       1  UNL1        0.0000
     56 H          -3.1370   -4.5078   -2.9803 H       1  UNL1        0.0000
     57 H          -1.6528   -5.3949   -2.6393 H       1  UNL1        0.0000
     58 H          -1.6031   -3.6347   -2.8563 H       1  UNL1        0.0000
     59 H          -1.5348   -5.7368    1.3168 H       1  UNL1        0.0000
     60 H          -2.7184   -4.5720    3.1503 H       1  UNL1        0.0000
     61 H          -3.6313   -4.4072    1.6538 H       1  UNL1        0.0000
     62 H          -2.6689   -3.0463    2.2639 H       1  UNL1        0.0000
     63 H          -4.1265    0.5980   -2.0836 H       1  UNL1        0.0000
     64 H          -4.7505   -0.5775   -0.9692 H       1  UNL1        0.0000
     65 H          -6.5659    0.5110   -2.2637 H       1  UNL1        0.0000
     66 H          -6.1376    2.0936   -1.6158 H       1  UNL1        0.0000
     67 H          -6.7848    0.8438   -0.5481 H       1  UNL1        0.0000
     68 H          -5.6725    1.2942    1.1689 H       1  UNL1        0.0000
     69 H          -5.2696   -0.6006    2.7085 H       1  UNL1        0.0000
     70 H          -3.6843   -0.8808    1.9815 H       1  UNL1        0.0000
     71 H          -5.1593   -1.1367    1.0337 H       1  UNL1        0.0000
     72 H          -4.7654    1.6547    3.4025 H       1  UNL1        0.0000
     73 H          -4.1945    2.9089    2.3080 H       1  UNL1        0.0000
     74 H          -3.1059    1.5971    2.7856 H       1  UNL1        0.0000
     75 H          -3.1053    3.1387    0.4587 H       1  UNL1        0.0000
     76 H          -3.1581    4.2011   -1.7415 H       1  UNL1        0.0000
     77 H          -3.9282    2.7985   -2.4812 H       1  UNL1        0.0000
     78 H          -2.2700    2.6779   -1.8850 H       1  UNL1        0.0000
     79 H           3.6030   -3.1963   -0.5198 H       1  UNL1        0.0000
     80 H           5.2763   -2.9557   -0.0890 H       1  UNL1        0.0000
     81 H           3.9828   -4.2702    1.6189 H       1  UNL1        0.0000
     82 H           2.9747   -2.8525    1.9481 H       1  UNL1        0.0000
     83 H           4.6986   -2.8217    2.3256 H       1  UNL1        0.0000
     84 H           4.2678   -0.6329    2.0059 H       1  UNL1        0.0000
     85 H           6.6356   -0.1351    2.1839 H       1  UNL1        0.0000
     86 H           6.8718   -0.2239    0.4414 H       1  UNL1        0.0000
     87 H           6.4862   -1.6863    1.3566 H       1  UNL1        0.0000
     88 H           4.9729    1.7129    1.8166 H       1  UNL1        0.0000
     89 H           3.4852    1.4226    0.9191 H       1  UNL1        0.0000
     90 H           5.0262    1.5937    0.0564 H       1  UNL1        0.0000
     91 H           5.8295   -0.7790   -1.3096 H       1  UNL1        0.0000
     92 H           4.7989   -2.7121   -2.4791 H       1  UNL1        0.0000
     93 H           4.8645   -1.3043   -3.5351 H       1  UNL1        0.0000
     94 H           3.3313   -1.7658   -2.7849 H       1  UNL1        0.0000
     95 H           0.6399    3.9630   -2.2509 H       1  UNL1        0.0000
     96 H          -0.6994    4.4577   -1.2685 H       1  UNL1        0.0000
     97 H           1.7953    6.1798   -1.8076 H       1  UNL1        0.0000
     98 H           0.4054    6.6933   -0.8454 H       1  UNL1        0.0000
     99 H           0.2129    6.3562   -2.5633 H       1  UNL1        0.0000
    100 H           2.9130    5.0506   -0.2026 H       1  UNL1        0.0000
    101 H           2.8556    3.9332   -2.4635 H       1  UNL1        0.0000
    102 H           2.9278    2.3494   -1.6879 H       1  UNL1        0.0000
    103 H           4.2928    3.4657   -1.5533 H       1  UNL1        0.0000
    104 H           0.7896    5.7272    0.9598 H       1  UNL1        0.0000
    105 H          -1.1462    5.0728    2.3547 H       1  UNL1        0.0000
    106 H          -1.0923    3.4323    1.7029 H       1  UNL1        0.0000
    107 H          -1.4975    4.8005    0.6502 H       1  UNL1        0.0000
    108 H           2.5146    4.6097    2.3094 H       1  UNL1        0.0000
    109 H           1.3857    3.3066    2.7149 H       1  UNL1        0.0000
    110 H           1.0813    4.9626    3.2672 H       1  UNL1        0.0000
    111 H          -0.5867   -4.4365    2.0154 H       1  UNL1        0.0000
    112 H           4.4574    0.2406   -1.6997 H       1  UNL1        0.0000
    113 H           3.0771    3.4919    0.5686 H       1  UNL1        0.0000
    114 H          -4.7518    3.1709   -0.1277 H       1  UNL1        0.0000
@<TRIPOS>BOND
     1     2    14    1
     2     2    12    1
     3     2     8    1
     4     2    10    1
     5     2     1    1
     6     3     9    1
     7     4     7    1
     8     5    11    1
     9     6    13    1
    10     7     1    1
    11     8     4    1
    12     9     1    1
    13    10     3    1
    14    11     1    1
    15    12     5    1
    16    13     1    1
    17    14     6    1
    18    15     4    1
    19    15    21    1
    20    16    15    1
    21    16    17    1
    22    17    50    1
    23    17    49    1
    24    18    19    1
    25    18    52    1
    26    18    15    1
    27    19    53    1
    28    20    18    1
    29    21   111    1
    30    21    22    1
    31    22    62    1
    32    22    60    1
    33    23     3    1
    34    23    26    1
    35    24    64    1
    36    24    23    1
    37    25    24    1
    38    25    67    1
    39    26    27    1
    40    26    28    1
    41    27    70    1
    42    27    69    1
    43    28    74    1
    44    28    72    1
    45    29   114    1
    46    29    23    1
    47    29    75    1
    48    30    29    1
    49    31     5    1
    50    31    32    1
    51    31    34    1
    52    32    33    1
    53    33    81    1
    54    33    82    1
    55    33    83    1
    56    34    35    1
    57    34    84    1
    58    35    87    1
    59    35    85    1
    60    36    34    1
    61    36    88    1
    62    37    91    1
    63    37    31    1
    64    38    92    1
    65    38    37    1
    66    39     6    1
    67    39    44    1
    68    40    96    1
    69    40    39    1
    70    41    40    1
    71    41    98    1
    72    42   100    1
    73    42    39    1
    74    42   113    1
    75    43   103    1
    76    43    42    1
    77    44    45    1
    78    44    46    1
    79    45   106    1
    80    45   105    1
    81    46   109    1
    82    46   110    1
    83    47    16    1
    84    48    16    1
    85    51    17    1
    86    54    19    1
    87    55    19    1
    88    56    20    1
    89    57    20    1
    90    58    20    1
    91    59    21    1
    92    61    22    1
    93    63    24    1
    94    65    25    1
    95    66    25    1
    96    68    26    1
    97    71    27    1
    98    73    28    1
    99    76    30    1
   100    77    30    1
   101    78    30    1
   102    79    32    1
   103    80    32    1
   104    86    35    1
   105    89    36    1
   106    90    36    1
   107    93    38    1
   108    94    38    1
   109    95    40    1
   110    97    41    1
   111    99    41    1
   112   101    43    1
   113   102    43    1
   114   104    44    1
   115   107    45    1
   116   108    46    1
   117   112    37    1
