@<TRIPOS>MOLECULE
RhRh_pOMe-PhO2C4_2_sp
 74 81 0 0 0
SMALL
GASTEIGER

@<TRIPOS>ATOM
      1 Rh          0.0001    0.0001   -1.1929 Rh      1  UNL1        0.0000
      2 Rh          0.0001   -0.0001    1.1929 Rh      1  UNL1        0.0000
      3 C          -1.8660    1.8671    0.0004 C.3     1  UNL1        0.0000
      4 C           1.8661   -1.8672    0.0003 C.3     1  UNL1        0.0000
      5 C           1.8674    1.8659   -0.0003 C.3     1  UNL1        0.0000
      6 C          -1.8673   -1.8659   -0.0004 C.3     1  UNL1        0.0000
      7 O           1.4517    1.4507   -1.1347 O.3     1  UNL1        0.0000
      8 O           1.4521    1.4506    1.1343 O.3     1  UNL1        0.0000
      9 O          -1.4519   -1.4507    1.1342 O.3     1  UNL1        0.0000
     10 O          -1.4517   -1.4506   -1.1348 O.3     1  UNL1        0.0000
     11 O          -1.4508    1.4517   -1.1342 O.3     1  UNL1        0.0000
     12 O          -1.4505    1.4517    1.1347 O.3     1  UNL1        0.0000
     13 O           1.4506   -1.4519    1.1348 O.3     1  UNL1        0.0000
     14 O           1.4511   -1.4516   -1.1342 O.3     1  UNL1        0.0000
     15 C           2.9147    2.9126   -0.0017 C.ar    1  UNL1        0.0000
     16 C           3.4169    3.4148   -1.2136 C.ar    1  UNL1        0.0000
     17 C           4.3958    4.3932   -1.2152 C.ar    1  UNL1        0.0000
     18 C           4.8942    4.8911   -0.0004 C.ar    1  UNL1        0.0000
     19 C           4.4001    4.3971    1.2145 C.ar    1  UNL1        0.0000
     20 C           3.4156    3.4131    1.2037 C.ar    1  UNL1        0.0000
     21 C          -2.9147   -2.9125   -0.0018 C.ar    1  UNL1        0.0000
     22 C          -3.4171   -3.4145   -1.2137 C.ar    1  UNL1        0.0000
     23 C          -4.3961   -4.3927   -1.2153 C.ar    1  UNL1        0.0000
     24 C          -4.8944   -4.8908   -0.0004 C.ar    1  UNL1        0.0000
     25 C          -4.4001   -4.3970    1.2145 C.ar    1  UNL1        0.0000
     26 C          -3.4154   -3.4131    1.2037 C.ar    1  UNL1        0.0000
     27 C          -2.9130    2.9141    0.0017 C.ar    1  UNL1        0.0000
     28 C          -3.4137    3.4148   -1.2037 C.ar    1  UNL1        0.0000
     29 C          -4.3979    4.3991   -1.2145 C.ar    1  UNL1        0.0000
     30 C          -4.8920    4.8931    0.0004 C.ar    1  UNL1        0.0000
     31 C          -4.3939    4.3949    1.2153 C.ar    1  UNL1        0.0000
     32 C          -3.4153    3.4163    1.2136 C.ar    1  UNL1        0.0000
     33 C           2.9131   -2.9143    0.0017 C.ar    1  UNL1        0.0000
     34 C           3.4138   -3.4149   -1.2037 C.ar    1  UNL1        0.0000
     35 C           4.3979   -4.3993   -1.2145 C.ar    1  UNL1        0.0000
     36 C           4.8919   -4.8935    0.0004 C.ar    1  UNL1        0.0000
     37 C           4.3937   -4.3953    1.2152 C.ar    1  UNL1        0.0000
     38 C           3.4152   -3.4167    1.2136 C.ar    1  UNL1        0.0000
     39 C          -6.3927    6.3939   -1.0875 C.3     1  UNL1        0.0000
     40 C           6.3954    6.3913    1.0875 C.3     1  UNL1        0.0000
     41 C           6.3925   -6.3942   -1.0876 C.3     1  UNL1        0.0000
     42 C          -6.3956   -6.3910    1.0875 C.3     1  UNL1        0.0000
     43 H           3.0255    3.0237   -2.1451 H       1  UNL1        0.0000
     44 H           4.7961    4.7934   -2.1401 H       1  UNL1        0.0000
     45 H           4.7721    4.7687    2.1608 H       1  UNL1        0.0000
     46 H          -3.0257   -3.0233   -2.1452 H       1  UNL1        0.0000
     47 H          -4.7965   -4.7928   -2.1401 H       1  UNL1        0.0000
     48 H          -4.7720   -4.7687    2.1607 H       1  UNL1        0.0000
     49 H          -3.0239   -3.0219    2.1353 H       1  UNL1        0.0000
     50 H          -3.0223    3.0235   -2.1353 H       1  UNL1        0.0000
     51 H          -4.7697    4.7710   -2.1607 H       1  UNL1        0.0000
     52 H          -4.7942    4.7951    2.1401 H       1  UNL1        0.0000
     53 H          -3.0240    3.0250    2.1452 H       1  UNL1        0.0000
     54 H           3.0225   -3.0234   -2.1353 H       1  UNL1        0.0000
     55 H           4.7698   -4.7710   -2.1608 H       1  UNL1        0.0000
     56 H           4.7938   -4.7957    2.1401 H       1  UNL1        0.0000
     57 H          -7.1311    7.1323   -0.7739 H       1  UNL1        0.0000
     58 H          -5.6210    6.8861   -1.6918 H       1  UNL1        0.0000
     59 H          -6.8849    5.6223   -1.6919 H       1  UNL1        0.0000
     60 H           7.1340    7.1295    0.7740 H       1  UNL1        0.0000
     61 H           5.6240    6.8837    1.6920 H       1  UNL1        0.0000
     62 H           6.8875    5.6195    1.6918 H       1  UNL1        0.0000
     63 H           6.8849   -5.6226   -1.6919 H       1  UNL1        0.0000
     64 H           7.1308   -7.1327   -0.7740 H       1  UNL1        0.0000
     65 H           5.6209   -6.8863   -1.6921 H       1  UNL1        0.0000
     66 H          -6.8875   -5.6192    1.6920 H       1  UNL1        0.0000
     67 H          -7.1343   -7.1291    0.7739 H       1  UNL1        0.0000
     68 H          -5.6242   -6.8835    1.6918 H       1  UNL1        0.0000
     69 O          -5.8504    5.8515    0.1077 O.3     1  UNL1        0.0000
     70 O          -5.8531   -5.8488   -0.1077 O.3     1  UNL1        0.0000
     71 O           5.8501   -5.8519    0.1076 O.3     1  UNL1        0.0000
     72 O           5.8528    5.8492   -0.1076 O.3     1  UNL1        0.0000
     73 H           3.0242    3.0217    2.1353 H       1  UNL1        0.0000
     74 H           3.0238   -3.0254    2.1452 H       1  UNL1        0.0000
@<TRIPOS>BOND
     1     1    10    1
     2     1     7    1
     3     1    11    1
     4     1    14    1
     5     1     2    1
     6     3    27    1
     7     3    12    1
     8     4    33    1
     9     4    13    1
    10     5     8    1
    11     6     9    1
    12     7     5    1
    13     8     2    1
    14     9     2    1
    15    10     6    1
    16    11     3    1
    17    12     2    1
    18    13     2    1
    19    14     4    1
    20    15     5    1
    21    15    20   ar
    22    16    15   ar
    23    17    16   ar
    24    17    18   ar
    25    18    19   ar
    26    19    45    1
    27    20    19   ar
    28    20    73    1
    29    21     6    1
    30    21    26   ar
    31    22    21   ar
    32    23    22   ar
    33    23    24   ar
    34    24    25   ar
    35    25    48    1
    36    26    25   ar
    37    26    49    1
    38    27    32   ar
    39    28    27   ar
    40    29    28   ar
    41    29    30   ar
    42    30    69    1
    43    30    31   ar
    44    31    52    1
    45    32    31   ar
    46    32    53    1
    47    33    38   ar
    48    34    33   ar
    49    35    34   ar
    50    35    36   ar
    51    36    71    1
    52    36    37   ar
    53    37    56    1
    54    38    37   ar
    55    38    74    1
    56    39    57    1
    57    39    69    1
    58    40    62    1
    59    40    61    1
    60    41    64    1
    61    41    71    1
    62    42    68    1
    63    42    66    1
    64    43    16    1
    65    44    17    1
    66    46    22    1
    67    47    23    1
    68    50    28    1
    69    51    29    1
    70    54    34    1
    71    55    35    1
    72    58    39    1
    73    59    39    1
    74    60    40    1
    75    63    41    1
    76    65    41    1
    77    67    42    1
    78    70    24    1
    79    70    42    1
    80    72    18    1
    81    72    40    1
