@<TRIPOS>MOLECULE
RhRh_ACB4_6_sp
 114 129 0 0 0
SMALL
GASTEIGER

@<TRIPOS>ATOM
      1 Rh         -0.2293   -0.2509   -0.7530 Rh      1  UNL1        0.0000
      2 Rh          1.0289   -0.0100    1.2707 Rh      1  UNL1        0.0000
      3 C           2.0140    1.5497   -0.9426 C.3     1  UNL1        0.0000
      4 C          -1.2391   -1.8042    1.4559 C.3     1  UNL1        0.0000
      5 C          -1.2079    1.7822    1.0592 C.3     1  UNL1        0.0000
      6 C           1.9181   -2.1338   -0.4790 C.3     1  UNL1        0.0000
      7 O           0.9425   -1.8663   -1.2421 O.3     1  UNL1        0.0000
      8 O           2.1769   -1.5803    0.6379 O.3     1  UNL1        0.0000
      9 O          -1.5025   -1.5063    0.2482 O.3     1  UNL1        0.0000
     10 O          -0.3051   -1.3157    2.1629 O.3     1  UNL1        0.0000
     11 O          -1.3734    1.3362   -0.1198 O.3     1  UNL1        0.0000
     12 O          -0.2179    1.5419    1.8157 O.3     1  UNL1        0.0000
     13 O           1.1124    1.0125   -1.6538 O.3     1  UNL1        0.0000
     14 O           2.2760    1.2803    0.2723 O.3     1  UNL1        0.0000
     15 N           4.2205   -2.8273   -0.4712 N.am    1  UNL1        0.0000
     16 N          -2.8211   -3.5932    1.0666 N.am    1  UNL1        0.0000
     17 N          -3.5278    2.3992    0.8516 N.am    1  UNL1        0.0000
     18 N           1.9847    3.9097   -1.1618 N.am    1  UNL1        0.0000
     19 C           2.8831   -3.2329   -0.9089 C.3     1  UNL1        0.0000
     20 C           2.8620   -3.6743   -2.3978 C.3     1  UNL1        0.0000
     21 C           2.9184   -5.1514   -1.9387 C.3     1  UNL1        0.0000
     22 C           2.4648   -4.6920   -0.5328 C.3     1  UNL1        0.0000
     23 C           4.7146   -1.6045   -0.9653 C.2     1  UNL1        0.0000
     24 C           5.9017   -1.2588   -0.1467 C.ar    1  UNL1        0.0000
     25 C           6.7733   -0.1834   -0.2321 C.ar    1  UNL1        0.0000
     26 C           7.7921   -0.1082    0.7252 C.ar    1  UNL1        0.0000
     27 C           7.9188   -1.0815    1.7245 C.ar    1  UNL1        0.0000
     28 C           7.0298   -2.1610    1.8018 C.ar    1  UNL1        0.0000
     29 C           6.0244   -2.2256    0.8502 C.ar    1  UNL1        0.0000
     30 C           4.9184   -3.2177    0.6950 C.2     1  UNL1        0.0000
     31 C          -2.1363   -2.8440    2.1197 C.3     1  UNL1        0.0000
     32 C          -3.0511   -2.3222    3.2756 C.3     1  UNL1        0.0000
     33 C          -2.6799   -3.5719    4.1053 C.3     1  UNL1        0.0000
     34 C          -1.4689   -3.7867    3.1672 C.3     1  UNL1        0.0000
     35 C          -2.0274   -4.3210    0.1509 C.2     1  UNL1        0.0000
     36 C          -2.9091   -4.6678   -0.9920 C.ar    1  UNL1        0.0000
     37 C          -2.6468   -5.3965   -2.1418 C.ar    1  UNL1        0.0000
     38 C          -3.6879   -5.5280   -3.0688 C.ar    1  UNL1        0.0000
     39 C          -4.9407   -4.9458   -2.8366 C.ar    1  UNL1        0.0000
     40 C          -5.1929   -4.2130   -1.6703 C.ar    1  UNL1        0.0000
     41 C          -4.1542   -4.0867   -0.7616 C.ar    1  UNL1        0.0000
     42 C          -4.1055   -3.3569    0.5386 C.2     1  UNL1        0.0000
     43 C          -2.3240    2.6701    1.6148 C.3     1  UNL1        0.0000
     44 C          -1.8922    4.1567    1.7943 C.3     1  UNL1        0.0000
     45 C          -1.6033    3.8673    3.2867 C.3     1  UNL1        0.0000
     46 C          -2.4479    2.5752    3.1633 C.3     1  UNL1        0.0000
     47 C          -3.8967    3.0591   -0.3376 C.2     1  UNL1        0.0000
     48 C          -4.9009    2.1704   -0.9916 C.ar    1  UNL1        0.0000
     49 C          -5.6224    2.3547   -2.1605 C.ar    1  UNL1        0.0000
     50 C          -6.4725    1.3164   -2.5612 C.ar    1  UNL1        0.0000
     51 C          -6.5827    0.1406   -1.8083 C.ar    1  UNL1        0.0000
     52 C          -5.8504   -0.0403   -0.6279 C.ar    1  UNL1        0.0000
     53 C          -5.0154    0.9980   -0.2411 C.ar    1  UNL1        0.0000
     54 C          -4.0876    1.1048    0.9144 C.2     1  UNL1        0.0000
     55 C           2.7655    2.7366   -1.5586 C.3     1  UNL1        0.0000
     56 C           3.0834    2.5926   -3.0674 C.3     1  UNL1        0.0000
     57 C           4.5372    2.2053   -2.6900 C.3     1  UNL1        0.0000
     58 C           4.2869    2.7647   -1.2645 C.3     1  UNL1        0.0000
     59 C           2.1865    4.6381    0.0297 C.2     1  UNL1        0.0000
     60 C           1.0628    5.6170    0.0942 C.ar    1  UNL1        0.0000
     61 C           0.7825    6.5864    1.0447 C.ar    1  UNL1        0.0000
     62 C          -0.3890    7.3347    0.8719 C.ar    1  UNL1        0.0000
     63 C          -1.2436    7.1011   -0.2127 C.ar    1  UNL1        0.0000
     64 C          -0.9509    6.1206   -1.1684 C.ar    1  UNL1        0.0000
     65 C           0.2178    5.3961   -0.9946 C.ar    1  UNL1        0.0000
     66 C           0.7898    4.2935   -1.8174 C.2     1  UNL1        0.0000
     67 H           1.9023   -3.4080   -2.8415 H       1  UNL1        0.0000
     68 H           3.6676   -3.2836   -3.0193 H       1  UNL1        0.0000
     69 H           3.9403   -5.5406   -1.9299 H       1  UNL1        0.0000
     70 H           2.2753   -5.8630   -2.4620 H       1  UNL1        0.0000
     71 H           2.9444   -5.1180    0.3435 H       1  UNL1        0.0000
     72 H           1.3800   -4.7312   -0.4198 H       1  UNL1        0.0000
     73 H           8.7170   -0.9919    2.4545 H       1  UNL1        0.0000
     74 H           7.1107   -2.9158    2.5763 H       1  UNL1        0.0000
     75 H          -2.6047   -1.4123    3.6789 H       1  UNL1        0.0000
     76 H          -4.0873   -2.1301    3.0185 H       1  UNL1        0.0000
     77 H          -2.4700   -3.4236    5.1670 H       1  UNL1        0.0000
     78 H          -3.4254   -4.3653    4.0014 H       1  UNL1        0.0000
     79 H          -1.2436   -4.7938    2.8186 H       1  UNL1        0.0000
     80 H          -0.5584   -3.3207    3.5450 H       1  UNL1        0.0000
     81 H          -3.5233   -6.0871   -3.9843 H       1  UNL1        0.0000
     82 H          -5.7261   -5.0641   -3.5762 H       1  UNL1        0.0000
     83 H          -6.1576   -3.7553   -1.4795 H       1  UNL1        0.0000
     84 H          -1.0776    4.5006    1.1636 H       1  UNL1        0.0000
     85 H          -2.7491    4.8123    1.6457 H       1  UNL1        0.0000
     86 H          -0.5495    3.6455    3.4631 H       1  UNL1        0.0000
     87 H          -1.9407    4.6161    4.0070 H       1  UNL1        0.0000
     88 H          -3.4895    2.7269    3.4536 H       1  UNL1        0.0000
     89 H          -2.0689    1.6613    3.6174 H       1  UNL1        0.0000
     90 H          -5.5182    3.2655   -2.7401 H       1  UNL1        0.0000
     91 H          -7.0513    1.4204   -3.4737 H       1  UNL1        0.0000
     92 H          -7.2464   -0.6473   -2.1510 H       1  UNL1        0.0000
     93 H          -5.9108   -0.9522   -0.0436 H       1  UNL1        0.0000
     94 H           2.4735    1.8732   -3.6113 H       1  UNL1        0.0000
     95 H           3.0202    3.5629   -3.5626 H       1  UNL1        0.0000
     96 H           4.6832    1.1246   -2.6877 H       1  UNL1        0.0000
     97 H           5.3337    2.6813   -3.2672 H       1  UNL1        0.0000
     98 H           4.6374    3.7898   -1.1439 H       1  UNL1        0.0000
     99 H           4.6091    2.1784   -0.4040 H       1  UNL1        0.0000
    100 H           1.4440    6.7431    1.8898 H       1  UNL1        0.0000
    101 H          -1.6210    5.9076   -1.9923 H       1  UNL1        0.0000
    102 O          -5.0015   -2.7087    1.0429 O.2     1  UNL1        0.0000
    103 O          -0.8477   -4.5687    0.3039 O.2     1  UNL1        0.0000
    104 O          -3.4709    4.1280   -0.7269 O.2     1  UNL1        0.0000
    105 O          -3.7977    0.2772    1.7553 O.2     1  UNL1        0.0000
    106 O           0.3576    3.8087   -2.8403 O.2     1  UNL1        0.0000
    107 O           3.0920    4.4815    0.8218 O.2     1  UNL1        0.0000
    108 O           4.6771   -4.1634    1.4147 O.2     1  UNL1        0.0000
    109 O           4.1963   -0.9754   -1.8699 O.2     1  UNL1        0.0000
    110 H           6.6598    0.5678   -1.0059 H       1  UNL1        0.0000
    111 H           8.4932    0.7197    0.6976 H       1  UNL1        0.0000
    112 H          -1.6707   -5.8381   -2.3105 H       1  UNL1        0.0000
    113 H          -0.6475    8.0997    1.5973 H       1  UNL1        0.0000
    114 H          -2.1559    7.6811   -0.3060 H       1  UNL1        0.0000
@<TRIPOS>BOND
     1     1    11    1
     2     1     9    1
     3     1     2    1
     4     2    12    1
     5     2    10    1
     6     3    14    1
     7     4    31    1
     8     4    10    1
     9     5    43    1
    10     5    12    1
    11     6     8    1
    12     7     1    1
    13     7     6    1
    14     8     2    1
    15     9     4    1
    16    11     5    1
    17    13     3    1
    18    13     1    1
    19    14     2    1
    20    15    30   am
    21    16    31    1
    22    17    54   am
    23    17    43    1
    24    18    59   am
    25    19    22    1
    26    19     6    1
    27    19    15    1
    28    20    21    1
    29    20    19    1
    30    21    69    1
    31    21    22    1
    32    22    72    1
    33    22    71    1
    34    23    15   am
    35    23    24    1
    36    24    29   ar
    37    25    24   ar
    38    25    26   ar
    39    26    27   ar
    40    27    28   ar
    41    27    73    1
    42    28    74    1
    43    29    28   ar
    44    30    29    1
    45    30   108    2
    46    31    34    1
    47    31    32    1
    48    32    75    1
    49    32    33    1
    50    33    77    1
    51    34    80    1
    52    34    33    1
    53    35   103    2
    54    35    16   am
    55    36    41   ar
    56    36    35    1
    57    37    36   ar
    58    38    39   ar
    59    38    37   ar
    60    39    40   ar
    61    40    83    1
    62    40    41   ar
    63    41    42    1
    64    42   102    2
    65    42    16   am
    66    43    44    1
    67    43    46    1
    68    44    45    1
    69    45    86    1
    70    45    87    1
    71    46    45    1
    72    46    88    1
    73    46    89    1
    74    47    17   am
    75    48    47    1
    76    48    53   ar
    77    49    48   ar
    78    50    49   ar
    79    50    51   ar
    80    51    52   ar
    81    52    53   ar
    82    52    93    1
    83    53    54    1
    84    54   105    2
    85    55    58    1
    86    55    18    1
    87    55     3    1
    88    56    57    1
    89    56    55    1
    90    57    96    1
    91    57    58    1
    92    58    98    1
    93    58    99    1
    94    59    60    1
    95    59   107    2
    96    60    61   ar
    97    61   100    1
    98    62    61   ar
    99    62   113    1
   100    63    62   ar
   101    64    65   ar
   102    64    63   ar
   103    65    60   ar
   104    66    18   am
   105    66    65    1
   106    67    20    1
   107    68    20    1
   108    70    21    1
   109    76    32    1
   110    78    33    1
   111    79    34    1
   112    81    38    1
   113    82    39    1
   114    84    44    1
   115    85    44    1
   116    90    49    1
   117    91    50    1
   118    92    51    1
   119    94    56    1
   120    95    56    1
   121    97    57    1
   122   101    64    1
   123   104    47    2
   124   106    66    2
   125   109    23    2
   126   110    25    1
   127   111    26    1
   128   112    37    1
   129   114    63    1
