@<TRIPOS>MOLECULE
RhRh_S-PhenTTL4_7_sp
 180 199 0 0 0
SMALL
GASTEIGER

@<TRIPOS>ATOM
      1 Rh          0.7236   -0.3683   -0.3176 Rh      1  UNL1        0.0000
      2 Rh          0.2006   -1.2775    1.8280 Rh      1  UNL1        0.0000
      3 C          -1.2121    1.1505    1.1663 C.3     1  UNL1        0.0000
      4 C           2.1495   -2.8030    0.3346 C.3     1  UNL1        0.0000
      5 C          -1.4768   -2.2338   -0.3091 C.3     1  UNL1        0.0000
      6 C           2.4747    0.5084    1.7951 C.3     1  UNL1        0.0000
      7 O           2.1077   -1.8744   -0.5351 O.3     1  UNL1        0.0000
      8 O           1.4414   -2.8766    1.3811 O.3     1  UNL1        0.0000
      9 O           2.1777    0.7576    0.5833 O.3     1  UNL1        0.0000
     10 O           1.8207   -0.2412    2.5812 O.3     1  UNL1        0.0000
     11 O          -0.6794    1.0954    0.0148 O.3     1  UNL1        0.0000
     12 O          -0.9737    0.3633    2.1318 O.3     1  UNL1        0.0000
     13 O          -0.7153   -1.5942   -1.0942 O.3     1  UNL1        0.0000
     14 O          -1.3707   -2.2826    0.9560 O.3     1  UNL1        0.0000
     15 N           4.4882   -3.3190   -0.0621 N.am    1  UNL1        0.0000
     16 N           4.2366    2.1051    1.3212 N.am    1  UNL1        0.0000
     17 N          -3.5658    1.9257    1.1311 N.am    1  UNL1        0.0000
     18 N          -3.8412   -2.3242   -1.0251 N.am    1  UNL1        0.0000
     19 C           3.1549   -3.9137   -0.0074 C.3     1  UNL1        0.0000
     20 C           5.2249   -3.2520   -1.2617 C.2     1  UNL1        0.0000
     21 C           6.4486   -2.4562   -0.9475 C.ar    1  UNL1        0.0000
     22 C           7.4905   -2.0253   -1.8187 C.ar    1  UNL1        0.0000
     23 C           8.5226   -1.2099   -1.2539 C.ar    1  UNL1        0.0000
     24 C           8.5193   -0.8885    0.1735 C.ar    1  UNL1        0.0000
     25 C           7.4412   -1.3615    1.0099 C.ar    1  UNL1        0.0000
     26 C           6.4111   -2.1127    0.3741 C.ar    1  UNL1        0.0000
     27 C           5.0977   -2.5509    0.9356 C.2     1  UNL1        0.0000
     28 C           3.0741   -5.2524    0.7756 C.3     1  UNL1        0.0000
     29 C           4.1207   -6.2034    0.1647 C.3     1  UNL1        0.0000
     30 C           3.3393   -5.1135    2.2832 C.3     1  UNL1        0.0000
     31 C           1.6714   -5.8459    0.5434 C.3     1  UNL1        0.0000
     32 C           3.8079    1.0858    2.2750 C.3     1  UNL1        0.0000
     33 C           3.5451    3.2864    0.9965 C.2     1  UNL1        0.0000
     34 C           4.1320    3.7695   -0.2922 C.ar    1  UNL1        0.0000
     35 C           3.8462    4.9572   -1.0271 C.ar    1  UNL1        0.0000
     36 C           4.5579    5.1549   -2.2544 C.ar    1  UNL1        0.0000
     37 C           5.5260    4.1627   -2.7155 C.ar    1  UNL1        0.0000
     38 C           5.7718    2.9852   -1.9414 C.ar    1  UNL1        0.0000
     39 C           5.0412    2.8457   -0.7265 C.ar    1  UNL1        0.0000
     40 C           5.0692    1.7309    0.2525 C.2     1  UNL1        0.0000
     41 C           3.9614    1.4398    3.7891 C.3     1  UNL1        0.0000
     42 C           5.2434    2.2755    3.9489 C.3     1  UNL1        0.0000
     43 C           2.7621    2.2061    4.3678 C.3     1  UNL1        0.0000
     44 C           4.1352    0.1221    4.5712 C.3     1  UNL1        0.0000
     45 C          -2.1796    2.3198    1.3951 C.3     1  UNL1        0.0000
     46 C          -4.2181    0.7368    1.5074 C.2     1  UNL1        0.0000
     47 C          -5.6664    0.9532    1.2099 C.ar    1  UNL1        0.0000
     48 C          -6.7612    0.0771    1.4570 C.ar    1  UNL1        0.0000
     49 C          -8.0658    0.5507    1.1145 C.ar    1  UNL1        0.0000
     50 C          -8.2369    1.8830    0.5466 C.ar    1  UNL1        0.0000
     51 C          -7.0996    2.7168    0.3054 C.ar    1  UNL1        0.0000
     52 C          -5.8213    2.1904    0.6508 C.ar    1  UNL1        0.0000
     53 C          -4.4712    2.8132    0.5143 C.2     1  UNL1        0.0000
     54 C          -1.9857    3.0370    2.7710 C.3     1  UNL1        0.0000
     55 C          -2.7691    4.3628    2.7563 C.3     1  UNL1        0.0000
     56 C          -2.4806    2.1929    3.9566 C.3     1  UNL1        0.0000
     57 C          -0.4871    3.3529    2.9242 C.3     1  UNL1        0.0000
     58 C          -2.5979   -3.0880   -0.9171 C.3     1  UNL1        0.0000
     59 C          -4.0006   -1.0055   -1.4889 C.2     1  UNL1        0.0000
     60 C          -5.4708   -0.8087   -1.6620 C.ar    1  UNL1        0.0000
     61 C          -6.1558    0.3235   -2.1866 C.ar    1  UNL1        0.0000
     62 C          -7.5794    0.2372   -2.2839 C.ar    1  UNL1        0.0000
     63 C          -8.2717   -0.9727   -1.8557 C.ar    1  UNL1        0.0000
     64 C          -7.5338   -2.0800   -1.3298 C.ar    1  UNL1        0.0000
     65 C          -6.1181   -1.9402   -1.2501 C.ar    1  UNL1        0.0000
     66 C          -5.0950   -2.9166   -0.7708 C.2     1  UNL1        0.0000
     67 C          -2.1988   -3.8125   -2.2450 C.3     1  UNL1        0.0000
     68 C          -0.8579   -4.5342   -2.0080 C.3     1  UNL1        0.0000
     69 C          -3.2703   -4.8700   -2.5704 C.3     1  UNL1        0.0000
     70 C          -2.0844   -2.8517   -3.4396 C.3     1  UNL1        0.0000
     71 C          -9.5081    2.4047    0.2155 C.ar    1  UNL1        0.0000
     72 C          -7.2636    4.0128   -0.2334 C.ar    1  UNL1        0.0000
     73 C          -9.1551   -0.3191    1.3478 C.ar    1  UNL1        0.0000
     74 C          -6.5864   -1.2159    2.0045 C.ar    1  UNL1        0.0000
     75 C          -7.6769   -2.0320    2.2134 C.ar    1  UNL1        0.0000
     76 C          -8.9671   -1.5775    1.8835 C.ar    1  UNL1        0.0000
     77 C          -8.5235    4.4882   -0.5316 C.ar    1  UNL1        0.0000
     78 C          -9.6499    3.6756   -0.3083 C.ar    1  UNL1        0.0000
     79 C          -5.4763    1.4950   -2.5962 C.ar    1  UNL1        0.0000
     80 C          -8.2641    1.3585   -2.8048 C.ar    1  UNL1        0.0000
     81 C          -6.1841    2.5658   -3.0971 C.ar    1  UNL1        0.0000
     82 C          -7.5854    2.4929   -3.2024 C.ar    1  UNL1        0.0000
     83 C          -9.6760   -1.1084   -1.9406 C.ar    1  UNL1        0.0000
     84 C          -8.2012   -3.2591   -0.9279 C.ar    1  UNL1        0.0000
     85 C          -9.5727   -3.3544   -1.0385 C.ar    1  UNL1        0.0000
     86 C         -10.3118   -2.2695   -1.5444 C.ar    1  UNL1        0.0000
     87 C           7.4950   -2.3377   -3.1975 C.ar    1  UNL1        0.0000
     88 C           9.5216   -0.7316   -2.1323 C.ar    1  UNL1        0.0000
     89 C           9.5690   -0.0994    0.7482 C.2     1  UNL1        0.0000
     90 C           7.3726   -1.0821    2.4132 C.2     1  UNL1        0.0000
     91 C           8.4926   -1.8540   -4.0181 C.ar    1  UNL1        0.0000
     92 C           9.5097   -1.0454   -3.4790 C.ar    1  UNL1        0.0000
     93 C           8.4352   -0.3143    2.8014 C.2     1  UNL1        0.0000
     94 C           9.3785    0.1062    2.0878 C.2     1  UNL1        0.0000
     95 C           2.9000    5.9103   -0.5846 C.ar    1  UNL1        0.0000
     96 C           4.2773    6.3314   -2.9845 C.ar    1  UNL1        0.0000
     97 C           2.6557    7.0445   -1.3306 C.ar    1  UNL1        0.0000
     98 C           3.3508    7.2537   -2.5358 C.ar    1  UNL1        0.0000
     99 C           6.2471    4.3063   -3.9223 C.ar    1  UNL1        0.0000
    100 C           6.6985    2.0117   -2.3827 C.ar    1  UNL1        0.0000
    101 C           7.3783    2.1898   -3.5694 C.ar    1  UNL1        0.0000
    102 C           7.1496    3.3455   -4.3393 C.ar    1  UNL1        0.0000
    103 H           2.9448   -4.1510   -1.0557 H       1  UNL1        0.0000
    104 H           3.9840   -6.3138   -0.9158 H       1  UNL1        0.0000
    105 H           4.0347   -7.1929    0.6235 H       1  UNL1        0.0000
    106 H           5.1381   -5.8419    0.3404 H       1  UNL1        0.0000
    107 H           4.3500   -4.7518    2.4826 H       1  UNL1        0.0000
    108 H           3.2361   -6.0961    2.7561 H       1  UNL1        0.0000
    109 H           2.6364   -4.4236    2.7493 H       1  UNL1        0.0000
    110 H           1.6048   -6.8324    1.0120 H       1  UNL1        0.0000
    111 H           1.4676   -5.9717   -0.5258 H       1  UNL1        0.0000
    112 H           0.8932   -5.2120    0.9727 H       1  UNL1        0.0000
    113 H           4.5055    0.2602    2.0868 H       1  UNL1        0.0000
    114 H           5.4547    2.4194    5.0131 H       1  UNL1        0.0000
    115 H           5.1425    3.2619    3.4891 H       1  UNL1        0.0000
    116 H           6.1069    1.7745    3.4977 H       1  UNL1        0.0000
    117 H           2.9539    2.4340    5.4217 H       1  UNL1        0.0000
    118 H           1.8545    1.6002    4.3179 H       1  UNL1        0.0000
    119 H           2.5850    3.1389    3.8337 H       1  UNL1        0.0000
    120 H           4.2531    0.3425    5.6369 H       1  UNL1        0.0000
    121 H           5.0236   -0.4211    4.2379 H       1  UNL1        0.0000
    122 H           3.2727   -0.5328    4.4437 H       1  UNL1        0.0000
    123 H          -1.9467    3.0418    0.6093 H       1  UNL1        0.0000
    124 H          -2.5582    4.9158    3.6770 H       1  UNL1        0.0000
    125 H          -3.8492    4.1982    2.7141 H       1  UNL1        0.0000
    126 H          -2.4926    4.9905    1.9050 H       1  UNL1        0.0000
    127 H          -2.3178    2.7482    4.8862 H       1  UNL1        0.0000
    128 H          -1.9595    1.2388    4.0194 H       1  UNL1        0.0000
    129 H          -3.5540    1.9937    3.8792 H       1  UNL1        0.0000
    130 H          -0.3222    3.9534    3.8238 H       1  UNL1        0.0000
    131 H          -0.1004    3.9200    2.0716 H       1  UNL1        0.0000
    132 H           0.1091    2.4454    3.0209 H       1  UNL1        0.0000
    133 H          -2.8131   -3.8561   -0.1705 H       1  UNL1        0.0000
    134 H          -0.6179   -5.1627   -2.8708 H       1  UNL1        0.0000
    135 H          -0.9093   -5.1845   -1.1279 H       1  UNL1        0.0000
    136 H          -0.0377   -3.8266   -1.8699 H       1  UNL1        0.0000
    137 H          -2.9571   -5.4451   -3.4474 H       1  UNL1        0.0000
    138 H          -4.2340   -4.4118   -2.8075 H       1  UNL1        0.0000
    139 H          -3.4259   -5.5634   -1.7394 H       1  UNL1        0.0000
    140 H          -3.0459   -2.3767   -3.6566 H       1  UNL1        0.0000
    141 H          -1.7931   -3.4181   -4.3304 H       1  UNL1        0.0000
    142 H          -1.3481   -2.0697   -3.2609 H       1  UNL1        0.0000
    143 H           6.5540   -1.4560    3.0116 H       1  UNL1        0.0000
    144 H          10.4029    0.2671    0.1653 H       1  UNL1        0.0000
    145 H          10.3169   -0.0997   -1.7583 H       1  UNL1        0.0000
    146 H           6.6935   -2.9542   -3.5858 H       1  UNL1        0.0000
    147 H          -9.3432    1.3458   -2.8843 H       1  UNL1        0.0000
    148 H         -10.2744   -0.2934   -2.3284 H       1  UNL1        0.0000
    149 H          -7.6075   -4.0737   -0.5319 H       1  UNL1        0.0000
    150 H          -4.3986    1.5282   -2.4984 H       1  UNL1        0.0000
    151 H           4.7916    6.5244   -3.9178 H       1  UNL1        0.0000
    152 H           2.3779    5.7216    0.3452 H       1  UNL1        0.0000
    153 H         -10.1596   -0.0114    1.0886 H       1  UNL1        0.0000
    154 H          -5.5827   -1.5432    2.2441 H       1  UNL1        0.0000
    155 H         -10.3961    1.8073    0.3801 H       1  UNL1        0.0000
    156 H          -6.3774    4.6113   -0.4051 H       1  UNL1        0.0000
    157 O          -5.2525   -4.0115   -0.2653 O.2     1  UNL1        0.0000
    158 O          -3.1075   -0.2051   -1.6802 O.2     1  UNL1        0.0000
    159 O          -3.6899   -0.2573    1.9624 O.2     1  UNL1        0.0000
    160 O          -4.1608    3.8650   -0.0119 O.2     1  UNL1        0.0000
    161 O           2.6505    3.7839    1.6532 O.2     1  UNL1        0.0000
    162 O           5.6542    0.6667    0.1793 O.2     1  UNL1        0.0000
    163 O           4.5957   -2.2754    2.0113 O.2     1  UNL1        0.0000
    164 O           4.8818   -3.7679   -2.3070 O.2     1  UNL1        0.0000
    165 H           6.0962    5.1809   -4.5430 H       1  UNL1        0.0000
    166 H          -7.5383   -3.0286    2.6191 H       1  UNL1        0.0000
    167 H          -9.8228   -2.2271    2.0337 H       1  UNL1        0.0000
    168 H          -8.6461    5.4860   -0.9409 H       1  UNL1        0.0000
    169 H         -10.6413    4.0493   -0.5456 H       1  UNL1        0.0000
    170 H           6.8537    1.1293   -1.7753 H       1  UNL1        0.0000
    171 H           8.0834    1.4363   -3.9038 H       1  UNL1        0.0000
    172 H           7.6847    3.4863   -5.2735 H       1  UNL1        0.0000
    173 H           1.9280    7.7739   -0.9898 H       1  UNL1        0.0000
    174 H           3.1582    8.1469   -3.1221 H       1  UNL1        0.0000
    175 H          -5.6618    3.4684   -3.3958 H       1  UNL1        0.0000
    176 H          -8.1426    3.3424   -3.5828 H       1  UNL1        0.0000
    177 H         -10.0817   -4.2628   -0.7323 H       1  UNL1        0.0000
    178 H         -11.3919   -2.3438   -1.6279 H       1  UNL1        0.0000
    179 H           8.4910   -2.0928   -5.0766 H       1  UNL1        0.0000
    180 H          10.2950   -0.6620   -4.1232 H       1  UNL1        0.0000
@<TRIPOS>BOND
     1     1    11    1
     2     1     9    1
     3     1     2    1
     4     2    12    1
     5     2    10    1
     6     3    45    1
     7     3    12    1
     8     4    19    1
     9     4     8    1
    10     5    58    1
    11     5    14    1
    12     6    32    1
    13     6    10    1
    14     7     1    1
    15     7     4    1
    16     8     2    1
    17     9     6    1
    18    11     3    1
    19    13     1    1
    20    13     5    1
    21    14     2    1
    22    15    19    1
    23    15    27   am
    24    16    32    1
    25    17    45    1
    26    17    46   am
    27    18    58    1
    28    18    66   am
    29    19   103    1
    30    19    28    1
    31    20    21    1
    32    20    15   am
    33    21    26   ar
    34    22    23   ar
    35    22    21   ar
    36    23    24   ar
    37    24    89    1
    38    24    25   ar
    39    25    90    1
    40    26    27    1
    41    26    25   ar
    42    27   163    2
    43    28    30    1
    44    29   106    1
    45    29   105    1
    46    29    28    1
    47    30   107    1
    48    30   109    1
    49    30   108    1
    50    31    28    1
    51    31   112    1
    52    31   110    1
    53    32   113    1
    54    32    41    1
    55    33    16   am
    56    33   161    2
    57    34    33    1
    58    35    95   ar
    59    35    34   ar
    60    36    35   ar
    61    37    36   ar
    62    37    38   ar
    63    38    39   ar
    64    39    34   ar
    65    39    40    1
    66    40    16   am
    67    41    42    1
    68    41    43    1
    69    41    44    1
    70    42   114    1
    71    43   117    1
    72    44   120    1
    73    45   123    1
    74    45    54    1
    75    46   159    2
    76    47    48   ar
    77    47    46    1
    78    48    74   ar
    79    49    73   ar
    80    49    48   ar
    81    50    49   ar
    82    51    50   ar
    83    51    52   ar
    84    52    47   ar
    85    53    52    1
    86    53    17   am
    87    54    57    1
    88    54    56    1
    89    55    54    1
    90    55   124    1
    91    56   128    1
    92    56   127    1
    93    57   132    1
    94    57   130    1
    95    58   133    1
    96    59    18   am
    97    60    59    1
    98    60    65   ar
    99    61    60   ar
   100    62    61   ar
   101    62    63   ar
   102    63    64   ar
   103    64    65   ar
   104    64    84   ar
   105    65    66    1
   106    66   157    2
   107    67    68    1
   108    67    58    1
   109    68   136    1
   110    68   135    1
   111    69    67    1
   112    69   139    1
   113    70   142    1
   114    70    67    1
   115    71   155    1
   116    71    50   ar
   117    72    51   ar
   118    73    76   ar
   119    74    75   ar
   120    74   154    1
   121    75   166    1
   122    76   167    1
   123    76    75   ar
   124    77    78   ar
   125    77    72   ar
   126    78    71   ar
   127    79   150    1
   128    79    61   ar
   129    80    62   ar
   130    81    79   ar
   131    82    81   ar
   132    82    80   ar
   133    83    63   ar
   134    83    86   ar
   135    84   149    1
   136    85    84   ar
   137    85   177    1
   138    86    85   ar
   139    87    22   ar
   140    88   145    1
   141    88    23   ar
   142    89    94    2
   143    90    93    2
   144    90   143    1
   145    91    92   ar
   146    91    87   ar
   147    92    88   ar
   148    94    93    1
   149    95   152    1
   150    96    98   ar
   151    96    36   ar
   152    97   173    1
   153    97    95   ar
   154    98    97   ar
   155    99    37   ar
   156   100    38   ar
   157   100   170    1
   158   101   100   ar
   159   102    99   ar
   160   102   101   ar
   161   104    29    1
   162   111    31    1
   163   115    42    1
   164   116    42    1
   165   118    43    1
   166   119    43    1
   167   121    44    1
   168   122    44    1
   169   125    55    1
   170   126    55    1
   171   129    56    1
   172   131    57    1
   173   134    68    1
   174   137    69    1
   175   138    69    1
   176   140    70    1
   177   141    70    1
   178   144    89    1
   179   146    87    1
   180   147    80    1
   181   148    83    1
   182   151    96    1
   183   153    73    1
   184   156    72    1
   185   158    59    2
   186   160    53    2
   187   162    40    2
   188   164    20    2
   189   165    99    1
   190   168    77    1
   191   169    78    1
   192   171   101    1
   193   172   102    1
   194   174    98    1
   195   175    81    1
   196   176    82    1
   197   178    86    1
   198   179    91    1
   199   180    92    1
