@<TRIPOS>MOLECULE
RhRh_S-PhenTTL4_14_sp
 180 199 0 0 0
SMALL
GASTEIGER

@<TRIPOS>ATOM
      1 Rh         -1.0211   -0.6636   -0.3142 Rh      1  UNL1        0.0000
      2 Rh         -0.6354   -1.2199   -2.6072 Rh      1  UNL1        0.0000
      3 C          -2.4900   -2.9705   -1.2673 C.3     1  UNL1        0.0000
      4 C           0.7345    1.1488   -1.7123 C.3     1  UNL1        0.0000
      5 C          -2.9062    0.5202   -2.1434 C.3     1  UNL1        0.0000
      6 C           1.2518   -2.3695   -0.7436 C.3     1  UNL1        0.0000
      7 O           0.2412    0.9400   -0.5615 O.3     1  UNL1        0.0000
      8 O           0.5104    0.4679   -2.7575 O.3     1  UNL1        0.0000
      9 O           0.5687   -1.8192    0.1682 O.3     1  UNL1        0.0000
     10 O           1.0201   -2.3037   -1.9924 O.3     1  UNL1        0.0000
     11 O          -2.2508   -2.3107   -0.2069 O.3     1  UNL1        0.0000
     12 O          -1.8803   -2.8458   -2.3709 O.3     1  UNL1        0.0000
     13 O          -2.6399    0.4467   -0.9052 O.3     1  UNL1        0.0000
     14 O          -2.3066   -0.1006   -3.0732 O.3     1  UNL1        0.0000
     15 N           2.9194    2.0210   -1.0797 N.am    1  UNL1        0.0000
     16 N           3.5216   -2.5850    0.2993 N.am    1  UNL1        0.0000
     17 N          -4.5225   -3.5866   -0.1164 N.am    1  UNL1        0.0000
     18 N          -3.9732    2.6224   -1.6358 N.am    1  UNL1        0.0000
     19 C           1.6848    2.3509   -1.7939 C.3     1  UNL1        0.0000
     20 C           3.7373    0.9094   -1.3367 C.2     1  UNL1        0.0000
     21 C           5.0598    1.2247   -0.7190 C.ar    1  UNL1        0.0000
     22 C           6.3026    0.5577   -0.8988 C.ar    1  UNL1        0.0000
     23 C           7.4459    1.1197   -0.2490 C.ar    1  UNL1        0.0000
     24 C           7.3070    2.2972    0.6052 C.ar    1  UNL1        0.0000
     25 C           6.0211    2.9506    0.7290 C.ar    1  UNL1        0.0000
     26 C           4.9325    2.3752    0.0099 C.ar    1  UNL1        0.0000
     27 C           3.5486    2.9100   -0.1955 C.2     1  UNL1        0.0000
     28 C           1.9579    2.9695   -3.2021 C.3     1  UNL1        0.0000
     29 C           2.7917    4.2505   -3.0021 C.3     1  UNL1        0.0000
     30 C           2.7273    2.0299   -4.1468 C.3     1  UNL1        0.0000
     31 C           0.6152    3.3624   -3.8428 C.3     1  UNL1        0.0000
     32 C           2.3842   -3.2947   -0.2974 C.3     1  UNL1        0.0000
     33 C           4.8338   -3.0285    0.0345 C.2     1  UNL1        0.0000
     34 C           5.7332   -2.2599    0.9420 C.ar    1  UNL1        0.0000
     35 C           7.1391   -2.3849    1.1396 C.ar    1  UNL1        0.0000
     36 C           7.7553   -1.4677    2.0470 C.ar    1  UNL1        0.0000
     37 C           6.9573   -0.4449    2.7144 C.ar    1  UNL1        0.0000
     38 C           5.5461   -0.3736    2.4908 C.ar    1  UNL1        0.0000
     39 C           4.9802   -1.3309    1.5994 C.ar    1  UNL1        0.0000
     40 C           3.5454   -1.5103    1.2178 C.2     1  UNL1        0.0000
     41 C           1.8385   -4.4612    0.6027 C.3     1  UNL1        0.0000
     42 C           1.5220   -3.9972    2.0331 C.3     1  UNL1        0.0000
     43 C           0.5626   -5.0226   -0.0562 C.3     1  UNL1        0.0000
     44 C           2.8972   -5.5764    0.6649 C.3     1  UNL1        0.0000
     45 C          -3.5896   -4.0345   -1.1438 C.3     1  UNL1        0.0000
     46 C          -4.6063   -4.2564    1.1170 C.2     1  UNL1        0.0000
     47 C          -5.3208   -3.3347    2.0437 C.ar    1  UNL1        0.0000
     48 C          -5.6906   -3.5406    3.4045 C.ar    1  UNL1        0.0000
     49 C          -6.3163   -2.4483    4.0849 C.ar    1  UNL1        0.0000
     50 C          -6.5379   -1.1822    3.3935 C.ar    1  UNL1        0.0000
     51 C          -6.1661   -1.0360    2.0180 C.ar    1  UNL1        0.0000
     52 C          -5.5575   -2.1582    1.3842 C.ar    1  UNL1        0.0000
     53 C          -5.0392   -2.2835   -0.0107 C.2     1  UNL1        0.0000
     54 C          -4.2562   -4.5439   -2.4582 C.3     1  UNL1        0.0000
     55 C          -4.7785   -3.4070   -3.3517 C.3     1  UNL1        0.0000
     56 C          -3.2270   -5.3898   -3.2332 C.3     1  UNL1        0.0000
     57 C          -5.4281   -5.4575   -2.0537 C.3     1  UNL1        0.0000
     58 C          -4.0895    1.4386   -2.4896 C.3     1  UNL1        0.0000
     59 C          -2.7517    3.2093   -1.2716 C.2     1  UNL1        0.0000
     60 C          -3.0439    4.1030   -0.1169 C.ar    1  UNL1        0.0000
     61 C          -2.1362    4.8626    0.6747 C.ar    1  UNL1        0.0000
     62 C          -2.6883    5.6271    1.7503 C.ar    1  UNL1        0.0000
     63 C          -4.1309    5.6368    1.9761 C.ar    1  UNL1        0.0000
     64 C          -4.9971    4.8468    1.1535 C.ar    1  UNL1        0.0000
     65 C          -4.3894    4.0643    0.1289 C.ar    1  UNL1        0.0000
     66 C          -5.0034    3.0598   -0.7914 C.2     1  UNL1        0.0000
     67 C          -4.3441    1.7620   -3.9890 C.3     1  UNL1        0.0000
     68 C          -5.5232    2.7507   -4.0632 C.3     1  UNL1        0.0000
     69 C          -3.1190    2.3909   -4.6711 C.3     1  UNL1        0.0000
     70 C          -4.7548    0.4639   -4.7105 C.3     1  UNL1        0.0000
     71 C          -7.1048   -0.0594    4.0372 C.ar    1  UNL1        0.0000
     72 C          -6.3761    0.1898    1.3461 C.ar    1  UNL1        0.0000
     73 C          -6.6930   -2.6527    5.4315 C.ar    1  UNL1        0.0000
     74 C          -5.4563   -4.7643    4.0736 C.ar    1  UNL1        0.0000
     75 C          -5.8372   -4.9196    5.3900 C.ar    1  UNL1        0.0000
     76 C          -6.4612   -3.8567    6.0690 C.ar    1  UNL1        0.0000
     77 C          -6.9329    1.2607    2.0127 C.ar    1  UNL1        0.0000
     78 C          -7.2945    1.1337    3.3657 C.ar    1  UNL1        0.0000
     79 C          -0.7395    4.8289    0.4594 C.ar    1  UNL1        0.0000
     80 C          -1.7827    6.3424    2.5658 C.ar    1  UNL1        0.0000
     81 C           0.1134    5.5302    1.2848 C.ar    1  UNL1        0.0000
     82 C          -0.4189    6.2947    2.3404 C.ar    1  UNL1        0.0000
     83 C          -4.7311    6.4068    2.9977 C.ar    1  UNL1        0.0000
     84 C          -6.3961    4.8702    1.3584 C.ar    1  UNL1        0.0000
     85 C          -6.9406    5.6364    2.3679 C.ar    1  UNL1        0.0000
     86 C          -6.0992    6.4041    3.1942 C.ar    1  UNL1        0.0000
     87 C           6.4332   -0.5755   -1.7360 C.ar    1  UNL1        0.0000
     88 C           8.6940    0.4997   -0.4890 C.ar    1  UNL1        0.0000
     89 C           8.4382    2.8204    1.3136 C.2     1  UNL1        0.0000
     90 C           5.8244    4.1219    1.5333 C.2     1  UNL1        0.0000
     91 C           7.6704   -1.1442   -1.9443 C.ar    1  UNL1        0.0000
     92 C           8.8054   -0.5988   -1.3178 C.ar    1  UNL1        0.0000
     93 C           6.9969    4.4885    2.1311 C.2     1  UNL1        0.0000
     94 C           8.1206    3.9363    2.0395 C.2     1  UNL1        0.0000
     95 C           7.9100   -3.3698    0.4822 C.ar    1  UNL1        0.0000
     96 C           9.1486   -1.5907    2.2492 C.ar    1  UNL1        0.0000
     97 C           9.2679   -3.4564    0.7087 C.ar    1  UNL1        0.0000
     98 C           9.8882   -2.5591    1.5975 C.ar    1  UNL1        0.0000
     99 C           7.5278    0.5142    3.5797 C.ar    1  UNL1        0.0000
    100 C           4.7718    0.6307    3.1165 C.ar    1  UNL1        0.0000
    101 C           5.3727    1.5545    3.9458 C.ar    1  UNL1        0.0000
    102 C           6.7578    1.4921    4.1790 C.ar    1  UNL1        0.0000
    103 H           1.2142    3.1206   -1.1795 H       1  UNL1        0.0000
    104 H           2.3102    4.9446   -2.3070 H       1  UNL1        0.0000
    105 H           2.9133    4.7585   -3.9635 H       1  UNL1        0.0000
    106 H           3.7937    4.0307   -2.6217 H       1  UNL1        0.0000
    107 H           3.7377    1.8243   -3.7832 H       1  UNL1        0.0000
    108 H           2.8289    2.5156   -5.1229 H       1  UNL1        0.0000
    109 H           2.2108    1.0799   -4.2778 H       1  UNL1        0.0000
    110 H           0.8046    3.8585   -4.8000 H       1  UNL1        0.0000
    111 H           0.0552    4.0509   -3.2057 H       1  UNL1        0.0000
    112 H          -0.0148    2.4921   -4.0245 H       1  UNL1        0.0000
    113 H           2.7877   -3.7371   -1.2098 H       1  UNL1        0.0000
    114 H           1.1139   -4.8387    2.6024 H       1  UNL1        0.0000
    115 H           0.7995   -3.1817    2.0427 H       1  UNL1        0.0000
    116 H           2.4261   -3.6603    2.5487 H       1  UNL1        0.0000
    117 H           0.2492   -5.9324    0.4640 H       1  UNL1        0.0000
    118 H           0.7301   -5.2759   -1.1084 H       1  UNL1        0.0000
    119 H          -0.2623   -4.3085    0.0030 H       1  UNL1        0.0000
    120 H           2.5014   -6.4219    1.2365 H       1  UNL1        0.0000
    121 H           3.8104   -5.2419    1.1633 H       1  UNL1        0.0000
    122 H           3.1722   -5.9315   -0.3321 H       1  UNL1        0.0000
    123 H          -3.1019   -4.9052   -0.6866 H       1  UNL1        0.0000
    124 H          -5.2236   -3.8341   -4.2565 H       1  UNL1        0.0000
    125 H          -3.9737   -2.7336   -3.6510 H       1  UNL1        0.0000
    126 H          -5.5390   -2.8141   -2.8412 H       1  UNL1        0.0000
    127 H          -3.7009   -5.8220   -4.1201 H       1  UNL1        0.0000
    128 H          -2.8559   -6.2181   -2.6185 H       1  UNL1        0.0000
    129 H          -2.3758   -4.7894   -3.5550 H       1  UNL1        0.0000
    130 H          -5.8467   -5.9353   -2.9446 H       1  UNL1        0.0000
    131 H          -6.2273   -4.8921   -1.5675 H       1  UNL1        0.0000
    132 H          -5.1030   -6.2440   -1.3647 H       1  UNL1        0.0000
    133 H          -4.9718    0.9072   -2.1141 H       1  UNL1        0.0000
    134 H          -5.7929    2.9202   -5.1100 H       1  UNL1        0.0000
    135 H          -5.2620    3.7185   -3.6257 H       1  UNL1        0.0000
    136 H          -6.4029    2.3695   -3.5369 H       1  UNL1        0.0000
    137 H          -3.3656    2.6369   -5.7092 H       1  UNL1        0.0000
    138 H          -2.2690    1.7079   -4.6701 H       1  UNL1        0.0000
    139 H          -2.8133    3.3125   -4.1699 H       1  UNL1        0.0000
    140 H          -5.6219    0.0024   -4.2250 H       1  UNL1        0.0000
    141 H          -3.9429   -0.2630   -4.7233 H       1  UNL1        0.0000
    142 H          -5.0330    0.6909   -5.7446 H       1  UNL1        0.0000
    143 H           4.8496    4.5852    1.6033 H       1  UNL1        0.0000
    144 H           9.4117    2.3522    1.2666 H       1  UNL1        0.0000
    145 H           9.5915    0.8856   -0.0236 H       1  UNL1        0.0000
    146 H           5.5434   -0.9774   -2.2042 H       1  UNL1        0.0000
    147 H          -2.1513    6.9337    3.3952 H       1  UNL1        0.0000
    148 H          -4.1152    7.0213    3.6427 H       1  UNL1        0.0000
    149 H          -7.0221    4.2871    0.6943 H       1  UNL1        0.0000
    150 H          -0.3634    4.2257   -0.3548 H       1  UNL1        0.0000
    151 H           9.6568   -0.9211    2.9322 H       1  UNL1        0.0000
    152 H           7.4065   -4.0415   -0.2021 H       1  UNL1        0.0000
    153 H          -7.1776   -1.8574    5.9842 H       1  UNL1        0.0000
    154 H          -4.9719   -5.5644    3.5274 H       1  UNL1        0.0000
    155 H          -7.3908   -0.1207    5.0800 H       1  UNL1        0.0000
    156 H          -6.0896    0.2750    0.3067 H       1  UNL1        0.0000
    157 O          -6.1488    2.6454   -0.8265 O.2     1  UNL1        0.0000
    158 O          -1.6914    2.9978   -1.8293 O.2     1  UNL1        0.0000
    159 O          -4.1434   -5.3629    1.3252 O.2     1  UNL1        0.0000
    160 O          -5.0372   -1.4605   -0.9076 O.2     1  UNL1        0.0000
    161 O           5.1251   -3.8727   -0.7926 O.2     1  UNL1        0.0000
    162 O           2.5997   -0.8639    1.6147 O.2     1  UNL1        0.0000
    163 O           3.0417    3.9227    0.2524 O.2     1  UNL1        0.0000
    164 O           3.3918   -0.0973   -1.9238 O.2     1  UNL1        0.0000
    165 H           8.5936    0.5056    3.7707 H       1  UNL1        0.0000
    166 H          -5.6574   -5.8597    5.9016 H       1  UNL1        0.0000
    167 H          -6.7644   -3.9810    7.1040 H       1  UNL1        0.0000
    168 H          -7.0794    2.1948    1.4872 H       1  UNL1        0.0000
    169 H          -7.7227    1.9826    3.8901 H       1  UNL1        0.0000
    170 H           3.7079    0.6564    2.9193 H       1  UNL1        0.0000
    171 H           4.7786    2.3333    4.4122 H       1  UNL1        0.0000
    172 H           7.2313    2.2280    4.8203 H       1  UNL1        0.0000
    173 H           9.8570   -4.2153    0.2038 H       1  UNL1        0.0000
    174 H          10.9565   -2.6289    1.7779 H       1  UNL1        0.0000
    175 H           1.1843    5.4709    1.1235 H       1  UNL1        0.0000
    176 H           0.2483    6.8489    2.9934 H       1  UNL1        0.0000
    177 H          -8.0151    5.6541    2.5193 H       1  UNL1        0.0000
    178 H          -6.5270    7.0083    3.9881 H       1  UNL1        0.0000
    179 H           7.7656   -2.0177   -2.5800 H       1  UNL1        0.0000
    180 H           9.7775   -1.0546   -1.4706 H       1  UNL1        0.0000
@<TRIPOS>BOND
     1     1    11    1
     2     1     9    1
     3     2    12    1
     4     2    10    1
     5     2     1    1
     6     3    45    1
     7     3    11    1
     8     4    19    1
     9     4     7    1
    10     5    58    1
    11     5    13    1
    12     6    32    1
    13     6     9    1
    14     7     1    1
    15     8     2    1
    16     8     4    1
    17    10     6    1
    18    12     3    1
    19    13     1    1
    20    14     2    1
    21    14     5    1
    22    15    27   am
    23    16    40   am
    24    17    53   am
    25    17    46   am
    26    18    59   am
    27    18    66   am
    28    19   103    1
    29    19    15    1
    30    20    15   am
    31    20    21    1
    32    21    26   ar
    33    22    21   ar
    34    22    23   ar
    35    23    24   ar
    36    24    25   ar
    37    24    89    1
    38    25    90    1
    39    26    25   ar
    40    27    26    1
    41    27   163    2
    42    28    29    1
    43    28    19    1
    44    29   106    1
    45    29   104    1
    46    30   107    1
    47    30    28    1
    48    31   111    1
    49    31    28    1
    50    32   113    1
    51    32    16    1
    52    32    41    1
    53    33    16   am
    54    33    34    1
    55    34    35   ar
    56    34    39   ar
    57    35    36   ar
    58    36    96   ar
    59    36    37   ar
    60    37    99   ar
    61    38    37   ar
    62    38   100   ar
    63    39    38   ar
    64    40    39    1
    65    40   162    2
    66    41    44    1
    67    41    42    1
    68    42   115    1
    69    42   116    1
    70    42   114    1
    71    43   119    1
    72    43   117    1
    73    43    41    1
    74    44   121    1
    75    44   120    1
    76    45   123    1
    77    45    17    1
    78    46   159    2
    79    46    47    1
    80    47    48   ar
    81    48    74   ar
    82    48    49   ar
    83    49    73   ar
    84    50    71   ar
    85    50    49   ar
    86    51    50   ar
    87    52    51   ar
    88    52    47   ar
    89    53    52    1
    90    54    57    1
    91    54    45    1
    92    55   126    1
    93    55    54    1
    94    56   128    1
    95    56    54    1
    96    57   131    1
    97    57   132    1
    98    58   133    1
    99    58    18    1
   100    59    60    1
   101    60    65   ar
   102    60    61   ar
   103    61    62   ar
   104    62    63   ar
   105    62    80   ar
   106    63    83   ar
   107    64    84   ar
   108    64    63   ar
   109    65    64   ar
   110    66    65    1
   111    67    58    1
   112    68    67    1
   113    68   135    1
   114    68   136    1
   115    69   138    1
   116    69   139    1
   117    69    67    1
   118    70   140    1
   119    70    67    1
   120    71   155    1
   121    72    77   ar
   122    72    51   ar
   123    73   153    1
   124    73    76   ar
   125    74    75   ar
   126    75   166    1
   127    75    76   ar
   128    76   167    1
   129    77    78   ar
   130    78   169    1
   131    78    71   ar
   132    79    61   ar
   133    79    81   ar
   134    80   147    1
   135    81    82   ar
   136    82    80   ar
   137    82   176    1
   138    83    86   ar
   139    83   148    1
   140    84    85   ar
   141    85   177    1
   142    85    86   ar
   143    86   178    1
   144    87    22   ar
   145    88    23   ar
   146    88   145    1
   147    89    94    2
   148    90   143    1
   149    90    93    2
   150    91    87   ar
   151    91    92   ar
   152    92    88   ar
   153    94    93    1
   154    95    97   ar
   155    95    35   ar
   156    96   151    1
   157    97    98   ar
   158    98   174    1
   159    98    96   ar
   160    99   165    1
   161    99   102   ar
   162   100   101   ar
   163   101   102   ar
   164   101   171    1
   165   102   172    1
   166   105    29    1
   167   108    30    1
   168   109    30    1
   169   110    31    1
   170   112    31    1
   171   118    43    1
   172   122    44    1
   173   124    55    1
   174   125    55    1
   175   127    56    1
   176   129    56    1
   177   130    57    1
   178   134    68    1
   179   137    69    1
   180   141    70    1
   181   142    70    1
   182   144    89    1
   183   146    87    1
   184   149    84    1
   185   150    79    1
   186   152    95    1
   187   154    74    1
   188   156    72    1
   189   157    66    2
   190   158    59    2
   191   160    53    2
   192   161    33    2
   193   164    20    2
   194   168    77    1
   195   170   100    1
   196   173    97    1
   197   175    81    1
   198   179    91    1
   199   180    92    1
