@<TRIPOS>MOLECULE
RhRh_pOMe-PhO2C4_1_sp
 74 81 0 0 0
SMALL
GASTEIGER

@<TRIPOS>ATOM
      1 Rh         -0.0435   -0.0109   -1.1444 Rh      1  UNL1        0.0000
      2 Rh          0.0411    0.0114    1.2402 Rh      1  UNL1        0.0000
      3 C           0.6664   -2.5536    0.0484 C.3     1  UNL1        0.0000
      4 C          -0.6664    2.5548    0.0478 C.3     1  UNL1        0.0000
      5 C          -2.5537   -0.6655    0.1454 C.3     1  UNL1        0.0000
      6 C           2.5514    0.6655   -0.0497 C.3     1  UNL1        0.0000
      7 O          -2.0257   -0.5292   -1.0100 O.3     1  UNL1        0.0000
      8 O          -1.9460   -0.5046    1.2574 O.3     1  UNL1        0.0000
      9 O           2.0239    0.5266    1.1055 O.3     1  UNL1        0.0000
     10 O           1.9430    0.5079   -1.1619 O.3     1  UNL1        0.0000
     11 O           0.4778   -1.9959   -1.0855 O.3     1  UNL1        0.0000
     12 O           0.5557   -1.9753    1.1820 O.3     1  UNL1        0.0000
     13 O          -0.4767    1.9971    1.1813 O.3     1  UNL1        0.0000
     14 O          -0.5603    1.9754   -1.0860 O.3     1  UNL1        0.0000
     15 C          -3.9852   -1.0401    0.2010 C.ar    1  UNL1        0.0000
     16 C          -4.6296   -1.2065    1.4380 C.ar    1  UNL1        0.0000
     17 C          -5.9675   -1.5568    1.4901 C.ar    1  UNL1        0.0000
     18 C          -6.6908   -1.7488    0.3018 C.ar    1  UNL1        0.0000
     19 C          -6.0577   -1.5854   -0.9379 C.ar    1  UNL1        0.0000
     20 C          -4.7116   -1.2328   -0.9778 C.ar    1  UNL1        0.0000
     21 C           3.9832    1.0391   -0.1046 C.ar    1  UNL1        0.0000
     22 C           4.6278    1.2076   -1.3412 C.ar    1  UNL1        0.0000
     23 C           5.9660    1.5570   -1.3925 C.ar    1  UNL1        0.0000
     24 C           6.6895    1.7456   -0.2037 C.ar    1  UNL1        0.0000
     25 C           6.0561    1.5800    1.0355 C.ar    1  UNL1        0.0000
     26 C           4.7098    1.2285    1.0746 C.ar    1  UNL1        0.0000
     27 C           1.0439   -3.9854    0.0497 C.ar    1  UNL1        0.0000
     28 C           1.1906   -4.6788   -1.1553 C.ar    1  UNL1        0.0000
     29 C           1.5460   -6.0247   -1.1663 C.ar    1  UNL1        0.0000
     30 C           1.7588   -6.6913    0.0480 C.ar    1  UNL1        0.0000
     31 C           1.6129   -6.0013    1.2624 C.ar    1  UNL1        0.0000
     32 C           1.2595   -4.6632    1.2610 C.ar    1  UNL1        0.0000
     33 C          -1.0389    3.9879    0.0491 C.ar    1  UNL1        0.0000
     34 C          -1.2550    4.6632   -1.1557 C.ar    1  UNL1        0.0000
     35 C          -1.6050    6.0105   -1.1666 C.ar    1  UNL1        0.0000
     36 C          -1.7421    6.6968    0.0477 C.ar    1  UNL1        0.0000
     37 C          -1.5268    6.0249    1.2619 C.ar    1  UNL1        0.0000
     38 C          -1.1790    4.6854    1.2603 C.ar    1  UNL1        0.0000
     39 C           2.2718   -8.7506   -1.0400 C.3     1  UNL1        0.0000
     40 C          -8.7800   -2.2990   -0.7081 C.3     1  UNL1        0.0000
     41 C          -2.3097    8.7419   -1.0401 C.3     1  UNL1        0.0000
     42 C           8.7791    2.2915    0.8077 C.3     1  UNL1        0.0000
     43 H          -4.0623   -1.0561    2.3487 H       1  UNL1        0.0000
     44 H          -6.4824   -1.6899    2.4350 H       1  UNL1        0.0000
     45 H          -6.5990   -1.7292   -1.8643 H       1  UNL1        0.0000
     46 H           4.0603    1.0597   -2.2523 H       1  UNL1        0.0000
     47 H           6.4811    1.6917   -2.3371 H       1  UNL1        0.0000
     48 H           6.5974    1.7211    1.9623 H       1  UNL1        0.0000
     49 H           4.2070    1.0970    2.0255 H       1  UNL1        0.0000
     50 H           1.0230   -4.1505   -2.0865 H       1  UNL1        0.0000
     51 H           1.6541   -6.5399   -2.1123 H       1  UNL1        0.0000
     52 H           1.7833   -6.5418    2.1869 H       1  UNL1        0.0000
     53 H           1.1445   -4.1215    2.1922 H       1  UNL1        0.0000
     54 H          -1.1452    4.1198   -2.0867 H       1  UNL1        0.0000
     55 H          -1.7668    6.5117   -2.1124 H       1  UNL1        0.0000
     56 H          -1.6400    6.5803    2.1862 H       1  UNL1        0.0000
     57 H           2.5479   -9.7578   -0.7269 H       1  UNL1        0.0000
     58 H           1.3409   -8.7926   -1.6186 H       1  UNL1        0.0000
     59 H           3.0680   -8.3350   -1.6696 H       1  UNL1        0.0000
     60 H          -9.7787   -2.5601   -0.3568 H       1  UNL1        0.0000
     61 H          -8.8367   -1.3913   -1.3214 H       1  UNL1        0.0000
     62 H          -8.3832   -3.1202   -1.3173 H       1  UNL1        0.0000
     63 H          -3.1437    8.3211   -1.6148 H       1  UNL1        0.0000
     64 H          -2.5621    9.7553   -0.7269 H       1  UNL1        0.0000
     65 H          -1.4146    8.7698   -1.6734 H       1  UNL1        0.0000
     66 H           8.8348    1.3824    1.4188 H       1  UNL1        0.0000
     67 H           9.7779    2.5526    0.4572 H       1  UNL1        0.0000
     68 H           8.3828    3.1117    1.4187 H       1  UNL1        0.0000
     69 O           2.1084   -8.0008    0.1549 O.3     1  UNL1        0.0000
     70 O           7.9963    2.0870   -0.3594 O.3     1  UNL1        0.0000
     71 O          -2.0793    8.0096    0.1546 O.3     1  UNL1        0.0000
     72 O          -7.9973   -2.0909    0.4583 O.3     1  UNL1        0.0000
     73 H          -4.2089   -1.1030   -1.9290 H       1  UNL1        0.0000
     74 H          -1.0106    4.1575    2.1914 H       1  UNL1        0.0000
@<TRIPOS>BOND
     1     1    14    1
     2     1    11    1
     3     1     7    1
     4     1     2    1
     5     2     8    1
     6     3    27    1
     7     3    12    1
     8     4    33    1
     9     4    13    1
    10     5    15    1
    11     5     8    1
    12     6     9    1
    13     7     5    1
    14     9     2    1
    15    10     1    1
    16    10     6    1
    17    11     3    1
    18    12     2    1
    19    13     2    1
    20    14     4    1
    21    15    16   ar
    22    16    17   ar
    23    16    43    1
    24    17    44    1
    25    18    72    1
    26    18    17   ar
    27    19    18   ar
    28    20    19   ar
    29    20    15   ar
    30    21     6    1
    31    21    26   ar
    32    22    21   ar
    33    23    22   ar
    34    23    24   ar
    35    24    25   ar
    36    25    26   ar
    37    25    48    1
    38    26    49    1
    39    27    32   ar
    40    28    27   ar
    41    29    28   ar
    42    29    30   ar
    43    30    69    1
    44    30    31   ar
    45    31    52    1
    46    32    31   ar
    47    32    53    1
    48    33    38   ar
    49    34    33   ar
    50    35    34   ar
    51    35    36   ar
    52    36    71    1
    53    36    37   ar
    54    37    56    1
    55    38    37   ar
    56    38    74    1
    57    39    57    1
    58    39    69    1
    59    40    60    1
    60    40    72    1
    61    41    64    1
    62    41    71    1
    63    42    68    1
    64    42    66    1
    65    45    19    1
    66    46    22    1
    67    47    23    1
    68    50    28    1
    69    51    29    1
    70    54    34    1
    71    55    35    1
    72    58    39    1
    73    59    39    1
    74    61    40    1
    75    62    40    1
    76    63    41    1
    77    65    41    1
    78    67    42    1
    79    70    24    1
    80    70    42    1
    81    73    20    1
