@<TRIPOS>MOLECULE
RhRh_EtEtiPr-O2C4_14_sp
 114 117 0 0 0
SMALL
GASTEIGER

@<TRIPOS>ATOM
      1 Rh          0.0169    0.0109    1.2163 Rh      1  UNL1        0.0000
      2 Rh          0.0834    0.1106   -1.1609 Rh      1  UNL1        0.0000
      3 C          -1.8374   -1.8004   -0.1054 C.3     1  UNL1        0.0000
      4 C           1.9189   -1.8142   -0.0142 C.3     1  UNL1        0.0000
      5 C           1.9843    1.8625    0.1667 C.3     1  UNL1        0.0000
      6 C          -1.8066    1.9471    0.0638 C.3     1  UNL1        0.0000
      7 O           1.5400   -1.3772    1.1217 O.3     1  UNL1        0.0000
      8 O           1.4584   -1.4124   -1.1334 O.3     1  UNL1        0.0000
      9 O          -1.3720   -1.5036    1.0431 O.3     1  UNL1        0.0000
     10 O          -1.4556   -1.2559   -1.1947 O.3     1  UNL1        0.0000
     11 O           1.4095    1.5246    1.2548 O.3     1  UNL1        0.0000
     12 O           1.6523    1.4337   -0.9844 O.3     1  UNL1        0.0000
     13 O          -1.4882    1.4114    1.1763 O.3     1  UNL1        0.0000
     14 O          -1.2972    1.6361   -1.0620 O.3     1  UNL1        0.0000
     15 C           2.9715   -2.9288   -0.0471 C.3     1  UNL1        0.0000
     16 C           3.8680   -2.7345   -1.2962 C.3     1  UNL1        0.0000
     17 C           4.7160   -1.4601   -1.2951 C.3     1  UNL1        0.0000
     18 C           2.2069   -4.3042   -0.1497 C.3     1  UNL1        0.0000
     19 C           1.2740   -4.5619    1.0425 C.3     1  UNL1        0.0000
     20 C           1.4330   -4.4922   -1.4629 C.3     1  UNL1        0.0000
     21 C           3.8080   -2.8608    1.2583 C.3     1  UNL1        0.0000
     22 C           4.9015   -3.9229    1.3921 C.3     1  UNL1        0.0000
     23 C          -2.9206   -2.8826   -0.2244 C.3     1  UNL1        0.0000
     24 C          -2.2908   -4.1053   -0.9708 C.3     1  UNL1        0.0000
     25 C          -2.0393   -3.9676   -2.4736 C.3     1  UNL1        0.0000
     26 C          -3.4558   -3.3736    1.1619 C.3     1  UNL1        0.0000
     27 C          -2.4262   -4.1067    2.0388 C.3     1  UNL1        0.0000
     28 C          -4.1618   -2.2882    1.9874 C.3     1  UNL1        0.0000
     29 C          -4.0681   -2.2551   -1.0707 C.3     1  UNL1        0.0000
     30 C          -5.2792   -3.1596   -1.3063 C.3     1  UNL1        0.0000
     31 C           3.1395    2.8685    0.2836 C.3     1  UNL1        0.0000
     32 C           2.5165    4.2741    0.5646 C.3     1  UNL1        0.0000
     33 C           1.1991    4.6100   -0.1408 C.3     1  UNL1        0.0000
     34 C           4.0358    2.8457   -1.0038 C.3     1  UNL1        0.0000
     35 C           3.4006    3.4674   -2.2585 C.3     1  UNL1        0.0000
     36 C           5.4042    3.5119   -0.7815 C.3     1  UNL1        0.0000
     37 C           3.9595    2.4692    1.5434 C.3     1  UNL1        0.0000
     38 C           4.5993    1.0809    1.4976 C.3     1  UNL1        0.0000
     39 C          -2.9218    3.0043    0.0568 C.3     1  UNL1        0.0000
     40 C          -2.5545    4.0595   -1.0339 C.3     1  UNL1        0.0000
     41 C          -3.2071    5.4439   -0.9279 C.3     1  UNL1        0.0000
     42 C          -3.0653    3.6341    1.4601 C.3     1  UNL1        0.0000
     43 C          -1.8216    4.3536    1.9946 C.3     1  UNL1        0.0000
     44 C          -4.2129    2.1900   -0.3565 C.3     1  UNL1        0.0000
     45 C          -4.6395    1.1614    0.7001 C.3     1  UNL1        0.0000
     46 C          -5.4200    3.0589   -0.7327 C.3     1  UNL1        0.0000
     47 H           4.5154   -3.6136   -1.3906 H       1  UNL1        0.0000
     48 H           3.2314   -2.7171   -2.1808 H       1  UNL1        0.0000
     49 H           5.4569   -1.4494   -0.4909 H       1  UNL1        0.0000
     50 H           4.0849   -0.5728   -1.1877 H       1  UNL1        0.0000
     51 H           5.2563   -1.3653   -2.2420 H       1  UNL1        0.0000
     52 H           2.9954   -5.0662   -0.1292 H       1  UNL1        0.0000
     53 H           1.8052   -4.5612    1.9970 H       1  UNL1        0.0000
     54 H           0.7937   -5.5394    0.9341 H       1  UNL1        0.0000
     55 H           0.4850   -3.8079    1.1064 H       1  UNL1        0.0000
     56 H           0.9108   -5.4541   -1.4460 H       1  UNL1        0.0000
     57 H           2.0886   -4.4926   -2.3362 H       1  UNL1        0.0000
     58 H           0.6895   -3.7061   -1.6070 H       1  UNL1        0.0000
     59 H           4.2675   -1.8709    1.3196 H       1  UNL1        0.0000
     60 H           5.4601   -3.7652    2.3198 H       1  UNL1        0.0000
     61 H           5.6197   -3.8832    0.5675 H       1  UNL1        0.0000
     62 H           4.4925   -4.9369    1.4287 H       1  UNL1        0.0000
     63 H          -1.3476   -4.3598   -0.4803 H       1  UNL1        0.0000
     64 H          -2.9545   -4.9606   -0.7979 H       1  UNL1        0.0000
     65 H          -1.5331   -4.8647   -2.8433 H       1  UNL1        0.0000
     66 H          -1.4101   -3.1046   -2.6976 H       1  UNL1        0.0000
     67 H          -2.9704   -3.8607   -3.0369 H       1  UNL1        0.0000
     68 H          -4.2168   -4.1197    0.9002 H       1  UNL1        0.0000
     69 H          -2.9276   -4.5052    2.9270 H       1  UNL1        0.0000
     70 H          -1.6356   -3.4322    2.3703 H       1  UNL1        0.0000
     71 H          -1.9640   -4.9515    1.5232 H       1  UNL1        0.0000
     72 H          -3.4636   -1.5030    2.2847 H       1  UNL1        0.0000
     73 H          -4.5767   -2.7313    2.8985 H       1  UNL1        0.0000
     74 H          -4.9896   -1.8243    1.4458 H       1  UNL1        0.0000
     75 H          -3.6470   -1.9489   -2.0296 H       1  UNL1        0.0000
     76 H          -5.9800   -2.6719   -1.9911 H       1  UNL1        0.0000
     77 H          -5.8225   -3.3744   -0.3818 H       1  UNL1        0.0000
     78 H          -4.9950   -4.1165   -1.7545 H       1  UNL1        0.0000
     79 H           2.3452    4.3489    1.6434 H       1  UNL1        0.0000
     80 H           3.2728    5.0288    0.3228 H       1  UNL1        0.0000
     81 H           0.8571    5.6043    0.1629 H       1  UNL1        0.0000
     82 H           0.4194    3.8999    0.1406 H       1  UNL1        0.0000
     83 H           1.2819    4.5997   -1.2276 H       1  UNL1        0.0000
     84 H           4.2177    1.7893   -1.2309 H       1  UNL1        0.0000
     85 H           4.0459    3.2741   -3.1219 H       1  UNL1        0.0000
     86 H           3.3127    4.5547   -2.1627 H       1  UNL1        0.0000
     87 H           2.4179    3.0496   -2.4712 H       1  UNL1        0.0000
     88 H           5.9646    3.5145   -1.7214 H       1  UNL1        0.0000
     89 H           6.0165    2.9984   -0.0377 H       1  UNL1        0.0000
     90 H           5.2979    4.5561   -0.4672 H       1  UNL1        0.0000
     91 H           3.2825    2.5102    2.3995 H       1  UNL1        0.0000
     92 H           3.8333    0.3075    1.3956 H       1  UNL1        0.0000
     93 H           5.1425    0.8814    2.4266 H       1  UNL1        0.0000
     94 H           5.3059    0.9692    0.6709 H       1  UNL1        0.0000
     95 H          -1.4712    4.2034   -1.0238 H       1  UNL1        0.0000
     96 H          -2.7733    3.6227   -2.0134 H       1  UNL1        0.0000
     97 H          -2.9052    5.9716   -0.0201 H       1  UNL1        0.0000
     98 H          -4.2970    5.4109   -0.9389 H       1  UNL1        0.0000
     99 H          -2.8888    6.0557   -1.7782 H       1  UNL1        0.0000
    100 H          -3.9082    4.3325    1.4318 H       1  UNL1        0.0000
    101 H          -1.4908    5.1628    1.3390 H       1  UNL1        0.0000
    102 H          -0.9893    3.6566    2.1152 H       1  UNL1        0.0000
    103 H          -2.0343    4.7913    2.9751 H       1  UNL1        0.0000
    104 H          -3.9215    1.6372   -1.2588 H       1  UNL1        0.0000
    105 H          -5.4105    0.5054    0.2844 H       1  UNL1        0.0000
    106 H          -5.0714    1.6462    1.5812 H       1  UNL1        0.0000
    107 H          -3.8091    0.5391    1.0367 H       1  UNL1        0.0000
    108 H          -5.2355    3.6655   -1.6209 H       1  UNL1        0.0000
    109 H          -5.7163    3.7231    0.0856 H       1  UNL1        0.0000
    110 H          -6.2756    2.4117   -0.9518 H       1  UNL1        0.0000
    111 H           3.1359   -2.9151    2.1155 H       1  UNL1        0.0000
    112 H           4.7216    3.2362    1.7115 H       1  UNL1        0.0000
    113 H          -3.3329    2.8513    2.1717 H       1  UNL1        0.0000
    114 H          -4.3983   -1.3317   -0.5877 H       1  UNL1        0.0000
@<TRIPOS>BOND
     1     1    11    1
     2     2     8    1
     3     2    14    1
     4     2    12    1
     5     2     1    1
     6     3     9    1
     7     4     7    1
     8     5    31    1
     9     5    11    1
    10     6    13    1
    11     7     1    1
    12     8     4    1
    13     9     1    1
    14    10     2    1
    15    10     3    1
    16    12     5    1
    17    13     1    1
    18    14     6    1
    19    15     4    1
    20    15    21    1
    21    16    17    1
    22    16    15    1
    23    17    50    1
    24    17    49    1
    25    18    52    1
    26    18    15    1
    27    18    19    1
    28    19    55    1
    29    19    53    1
    30    20    56    1
    31    20    18    1
    32    21    59    1
    33    21    22    1
    34    21   111    1
    35    22    62    1
    36    22    60    1
    37    23     3    1
    38    23    26    1
    39    24    64    1
    40    24    63    1
    41    24    23    1
    42    25    24    1
    43    26    28    1
    44    26    27    1
    45    27    70    1
    46    27    69    1
    47    28    72    1
    48    28    73    1
    49    29   114    1
    50    29    23    1
    51    30    29    1
    52    30    77    1
    53    31    32    1
    54    31    37    1
    55    32    79    1
    56    33    82    1
    57    33    81    1
    58    33    32    1
    59    34    36    1
    60    34    31    1
    61    35    86    1
    62    35    34    1
    63    36    90    1
    64    36    89    1
    65    37   112    1
    66    37    91    1
    67    38    37    1
    68    38    93    1
    69    39     6    1
    70    39    42    1
    71    40    95    1
    72    40    41    1
    73    40    39    1
    74    41    97    1
    75    42    43    1
    76    42   113    1
    77    43   102    1
    78    43   103    1
    79    44    39    1
    80    44    45    1
    81    45   107    1
    82    45   106    1
    83    46    44    1
    84    46   109    1
    85    47    16    1
    86    48    16    1
    87    51    17    1
    88    54    19    1
    89    57    20    1
    90    58    20    1
    91    61    22    1
    92    65    25    1
    93    66    25    1
    94    67    25    1
    95    68    26    1
    96    71    27    1
    97    74    28    1
    98    75    29    1
    99    76    30    1
   100    78    30    1
   101    80    32    1
   102    83    33    1
   103    84    34    1
   104    85    35    1
   105    87    35    1
   106    88    36    1
   107    92    38    1
   108    94    38    1
   109    96    40    1
   110    98    41    1
   111    99    41    1
   112   100    42    1
   113   101    43    1
   114   104    44    1
   115   105    45    1
   116   108    46    1
   117   110    46    1
