@<TRIPOS>MOLECULE
RhRh_S-BPTTL4_6_sp
 158 173 0 0 0
SMALL
GASTEIGER

@<TRIPOS>ATOM
      1 Rh         -0.7720   -0.7662   -0.0804 Rh      1  UNL1        0.0000
      2 Rh         -1.5571   -1.9586   -1.9995 Rh      1  UNL1        0.0000
      3 C          -2.9451   -2.5925    0.4506 C.3     1  UNL1        0.0000
      4 C           0.5950   -0.0904   -2.5101 C.3     1  UNL1        0.0000
      5 C          -2.9362    0.5174   -1.4876 C.3     1  UNL1        0.0000
      6 C           0.6840   -3.1892   -0.6687 C.3     1  UNL1        0.0000
      7 O          -2.1988    0.6446   -0.4561 O.3     1  UNL1        0.0000
      8 O          -2.9526   -0.4703   -2.2762 O.3     1  UNL1        0.0000
      9 O          -2.1226   -1.8205    1.0378 O.3     1  UNL1        0.0000
     10 O          -2.8913   -2.9491   -0.7639 O.3     1  UNL1        0.0000
     11 O           0.6507   -2.2318    0.1559 O.3     1  UNL1        0.0000
     12 O          -0.0982   -3.3594   -1.6607 O.3     1  UNL1        0.0000
     13 O           0.5051    0.2649   -1.2946 O.3     1  UNL1        0.0000
     14 O          -0.1652   -0.9147   -3.1013 O.3     1  UNL1        0.0000
     15 N          -2.9949    2.9048   -1.6180 N.am    1  UNL1        0.0000
     16 N          -4.5686   -1.9123    2.0781 N.am    1  UNL1        0.0000
     17 N           2.8483   -3.7834    0.3144 N.am    1  UNL1        0.0000
     18 N           2.7433    1.0220   -2.3784 N.am    1  UNL1        0.0000
     19 C          -3.1400    3.8375   -0.5756 C.2     1  UNL1        0.0000
     20 C          -1.8897    4.6424   -0.5672 C.ar    1  UNL1        0.0000
     21 C          -1.4916    5.6664    0.2485 C.ar    1  UNL1        0.0000
     22 C          -0.1828    6.2065    0.0688 C.ar    1  UNL1        0.0000
     23 C           0.6761    5.6762   -0.9577 C.ar    1  UNL1        0.0000
     24 C           0.2189    4.6154   -1.7895 C.ar    1  UNL1        0.0000
     25 C          -1.0366    4.1241   -1.5714 C.ar    1  UNL1        0.0000
     26 C          -1.7185    2.9808   -2.2137 C.2     1  UNL1        0.0000
     27 C          -4.3854   -1.7672    3.4739 C.2     1  UNL1        0.0000
     28 C          -4.5578   -0.3178    3.7563 C.ar    1  UNL1        0.0000
     29 C          -4.4547    0.3736    4.9321 C.ar    1  UNL1        0.0000
     30 C          -4.5411    1.7967    4.8913 C.ar    1  UNL1        0.0000
     31 C          -4.7189    2.4673    3.6296 C.ar    1  UNL1        0.0000
     32 C          -4.8473    1.7073    2.4320 C.ar    1  UNL1        0.0000
     33 C          -4.7692    0.3448    2.5222 C.ar    1  UNL1        0.0000
     34 C          -4.7755   -0.6724    1.4492 C.2     1  UNL1        0.0000
     35 C           4.0748   -3.5056   -0.3314 C.2     1  UNL1        0.0000
     36 C           4.9460   -2.8824    0.6990 C.ar    1  UNL1        0.0000
     37 C           6.2350   -2.4334    0.6163 C.ar    1  UNL1        0.0000
     38 C           6.8405   -1.8928    1.7887 C.ar    1  UNL1        0.0000
     39 C           6.0979   -1.8488    3.0225 C.ar    1  UNL1        0.0000
     40 C           4.7532   -2.3197    3.0557 C.ar    1  UNL1        0.0000
     41 C           4.2103   -2.8163    1.9034 C.ar    1  UNL1        0.0000
     42 C           2.8571   -3.3933    1.6641 C.2     1  UNL1        0.0000
     43 C           3.1242    2.3663   -2.2812 C.2     1  UNL1        0.0000
     44 C           4.0043    2.4631   -1.0912 C.ar    1  UNL1        0.0000
     45 C           4.6382    3.5452   -0.5463 C.ar    1  UNL1        0.0000
     46 C           5.4077    3.3538    0.6374 C.ar    1  UNL1        0.0000
     47 C           5.4957    2.0440    1.2285 C.ar    1  UNL1        0.0000
     48 C           4.8124    0.9460    0.6290 C.ar    1  UNL1        0.0000
     49 C           4.0924    1.1749   -0.5104 C.ar    1  UNL1        0.0000
     50 C           3.2851    0.2406   -1.3345 C.2     1  UNL1        0.0000
     51 C          -3.8553    1.7227   -1.7241 C.3     1  UNL1        0.0000
     52 C          -4.8088    1.7169   -2.9472 C.3     1  UNL1        0.0000
     53 C          -5.6041    3.0355   -2.9062 C.3     1  UNL1        0.0000
     54 C          -4.0767    1.6095   -4.2938 C.3     1  UNL1        0.0000
     55 C          -5.7924    0.5416   -2.7860 C.3     1  UNL1        0.0000
     56 C          -4.0715   -3.0963    1.3712 C.3     1  UNL1        0.0000
     57 C          -5.1663   -4.0174    0.7731 C.3     1  UNL1        0.0000
     58 C          -4.4900   -5.3196    0.3025 C.3     1  UNL1        0.0000
     59 C          -5.9382   -3.3735   -0.3894 C.3     1  UNL1        0.0000
     60 C          -6.1490   -4.3532    1.9106 C.3     1  UNL1        0.0000
     61 C           1.7267   -4.2816   -0.4691 C.3     1  UNL1        0.0000
     62 C           1.0737   -5.6335    0.0148 C.3     1  UNL1        0.0000
     63 C           0.5866   -6.3851   -1.2384 C.3     1  UNL1        0.0000
     64 C           2.1421   -6.4823    0.7213 C.3     1  UNL1        0.0000
     65 C          -0.1237   -5.3995    0.9549 C.3     1  UNL1        0.0000
     66 C           1.7144    0.5768   -3.3168 C.3     1  UNL1        0.0000
     67 C           2.2661   -0.2108   -4.5492 C.3     1  UNL1        0.0000
     68 C           2.6259   -1.6703   -4.2206 C.3     1  UNL1        0.0000
     69 C           1.2047   -0.1696   -5.6659 C.3     1  UNL1        0.0000
     70 C           3.5229    0.5240   -5.0519 C.3     1  UNL1        0.0000
     71 C          -4.4258    2.5807    6.0664 C.ar    1  UNL1        0.0000
     72 C          -4.7474    3.8847    3.5979 C.ar    1  UNL1        0.0000
     73 C          -4.6286    4.6127    4.7614 C.ar    1  UNL1        0.0000
     74 C          -4.4729    3.9562    6.0043 C.ar    1  UNL1        0.0000
     75 C           6.7293   -1.3286    4.1818 C.ar    1  UNL1        0.0000
     76 C           8.1664   -1.3899    1.7743 C.ar    1  UNL1        0.0000
     77 C           8.0240   -0.8598    4.1327 C.ar    1  UNL1        0.0000
     78 C           8.7457   -0.8842    2.9168 C.ar    1  UNL1        0.0000
     79 C           6.2683    1.8743    2.4034 C.ar    1  UNL1        0.0000
     80 C           6.0936    4.4288    1.2557 C.ar    1  UNL1        0.0000
     81 C           6.9272    2.9407    2.9737 C.ar    1  UNL1        0.0000
     82 C           6.8383    4.2283    2.3973 C.ar    1  UNL1        0.0000
     83 C           1.9798    6.2103   -1.1139 C.ar    1  UNL1        0.0000
     84 C           0.3100    7.2515    0.8900 C.ar    1  UNL1        0.0000
     85 C           1.5832    7.7484    0.7140 C.ar    1  UNL1        0.0000
     86 C           2.4248    7.2243   -0.2946 C.ar    1  UNL1        0.0000
     87 H          -2.1417    6.0520    1.0277 H       1  UNL1        0.0000
     88 H           0.8684    4.2000   -2.5512 H       1  UNL1        0.0000
     89 H          -4.2858   -0.1402    5.8732 H       1  UNL1        0.0000
     90 H          -4.9674    2.2172    1.4828 H       1  UNL1        0.0000
     91 H           6.7874   -2.4818   -0.3166 H       1  UNL1        0.0000
     92 H           4.1785   -2.2871    3.9759 H       1  UNL1        0.0000
     93 H           4.5556    4.5312   -0.9908 H       1  UNL1        0.0000
     94 H           4.8625   -0.0397    1.0746 H       1  UNL1        0.0000
     95 H          -4.4855    1.7550   -0.8320 H       1  UNL1        0.0000
     96 H          -6.3571    3.0387   -3.7000 H       1  UNL1        0.0000
     97 H          -4.9518    3.9003   -3.0591 H       1  UNL1        0.0000
     98 H          -6.1162    3.1653   -1.9474 H       1  UNL1        0.0000
     99 H          -3.4836    0.6964   -4.3517 H       1  UNL1        0.0000
    100 H          -3.4072    2.4566   -4.4574 H       1  UNL1        0.0000
    101 H          -4.8144    1.6005   -5.1036 H       1  UNL1        0.0000
    102 H          -5.2781   -0.4186   -2.8338 H       1  UNL1        0.0000
    103 H          -6.5374    0.5782   -3.5873 H       1  UNL1        0.0000
    104 H          -6.3172    0.5924   -1.8274 H       1  UNL1        0.0000
    105 H          -3.5658   -3.6726    2.1551 H       1  UNL1        0.0000
    106 H          -3.8035   -5.1369   -0.5255 H       1  UNL1        0.0000
    107 H          -5.2517   -6.0301   -0.0334 H       1  UNL1        0.0000
    108 H          -3.9315   -5.7928    1.1184 H       1  UNL1        0.0000
    109 H          -5.2729   -3.1059   -1.2108 H       1  UNL1        0.0000
    110 H          -6.4569   -2.4674   -0.0706 H       1  UNL1        0.0000
    111 H          -6.6863   -4.0822   -0.7605 H       1  UNL1        0.0000
    112 H          -6.6850   -3.4611    2.2467 H       1  UNL1        0.0000
    113 H          -5.6326   -4.7802    2.7760 H       1  UNL1        0.0000
    114 H          -6.8891   -5.0782    1.5585 H       1  UNL1        0.0000
    115 H           2.1666   -4.4674   -1.4521 H       1  UNL1        0.0000
    116 H           1.4246   -6.6365   -1.8979 H       1  UNL1        0.0000
    117 H          -0.1271   -5.7838   -1.8053 H       1  UNL1        0.0000
    118 H           0.0954   -7.3181   -0.9442 H       1  UNL1        0.0000
    119 H           3.0397   -6.5902    0.1035 H       1  UNL1        0.0000
    120 H           1.7420   -7.4834    0.9103 H       1  UNL1        0.0000
    121 H           2.4286   -6.0509    1.6827 H       1  UNL1        0.0000
    122 H          -0.9443   -4.9069    0.4241 H       1  UNL1        0.0000
    123 H           0.1585   -4.7907    1.8141 H       1  UNL1        0.0000
    124 H          -0.4992   -6.3641    1.3118 H       1  UNL1        0.0000
    125 H           1.2719    1.5055   -3.6962 H       1  UNL1        0.0000
    126 H           3.3939   -1.7430   -3.4492 H       1  UNL1        0.0000
    127 H           3.0046   -2.1582   -5.1249 H       1  UNL1        0.0000
    128 H           1.7525   -2.2274   -3.8765 H       1  UNL1        0.0000
    129 H           0.9535    0.8633   -5.9317 H       1  UNL1        0.0000
    130 H           0.2892   -0.6790   -5.3655 H       1  UNL1        0.0000
    131 H           1.5979   -0.6601   -6.5621 H       1  UNL1        0.0000
    132 H           4.3464    0.4494   -4.3362 H       1  UNL1        0.0000
    133 H           3.3228    1.5848   -5.2326 H       1  UNL1        0.0000
    134 H           3.8574    0.0737   -5.9913 H       1  UNL1        0.0000
    135 H          -4.6520    5.6975    4.7282 H       1  UNL1        0.0000
    136 H          -4.3834    4.5427    6.9134 H       1  UNL1        0.0000
    137 H           8.4934   -0.4660    5.0286 H       1  UNL1        0.0000
    138 H           9.7612   -0.5029    2.8873 H       1  UNL1        0.0000
    139 H           7.5180    2.7917    3.8720 H       1  UNL1        0.0000
    140 H           7.3598    5.0613    2.8584 H       1  UNL1        0.0000
    141 H          -4.8456    4.3744    2.6341 H       1  UNL1        0.0000
    142 H           6.1685   -1.3039    5.1114 H       1  UNL1        0.0000
    143 H           2.6110    5.7926   -1.8923 H       1  UNL1        0.0000
    144 H           6.3331    0.8889    2.8474 H       1  UNL1        0.0000
    145 O           1.9688   -3.5436    2.4779 O.2     1  UNL1        0.0000
    146 O           4.3332   -3.7751   -1.4857 O.2     1  UNL1        0.0000
    147 O           2.7726    3.2540   -3.0421 O.2     1  UNL1        0.0000
    148 O           3.1076   -0.9500   -1.1780 O.2     1  UNL1        0.0000
    149 O          -4.1093    3.9179    0.1594 O.2     1  UNL1        0.0000
    150 O          -1.2923    2.2112   -3.0538 O.2     1  UNL1        0.0000
    151 O          -4.1108   -2.6747    4.2315 O.2     1  UNL1        0.0000
    152 O          -4.8979   -0.5156    0.2473 O.2     1  UNL1        0.0000
    153 H          -0.3349    7.6537    1.6659 H       1  UNL1        0.0000
    154 H           1.9453    8.5478    1.3527 H       1  UNL1        0.0000
    155 H           3.4243    7.6287   -0.4218 H       1  UNL1        0.0000
    156 H           6.0208    5.4169    0.8107 H       1  UNL1        0.0000
    157 H           8.7199   -1.4123    0.8404 H       1  UNL1        0.0000
    158 H          -4.2946    2.0761    7.0192 H       1  UNL1        0.0000
@<TRIPOS>BOND
     1     1    11    1
     2     1     9    1
     3     2    12    1
     4     2    10    1
     5     2     1    1
     6     3     9    1
     7     3    56    1
     8     4    66    1
     9     4    13    1
    10     5    51    1
    11     5     7    1
    12     6    61    1
    13     6    11    1
    14     7     1    1
    15     8     2    1
    16     8     5    1
    17    10     3    1
    18    12     6    1
    19    13     1    1
    20    14     4    1
    21    14     2    1
    22    15    19   am
    23    16    27   am
    24    17    42   am
    25    18    43   am
    26    18    50   am
    27    19    20    1
    28    19   149    2
    29    20    21   ar
    30    21    87    1
    31    22    21   ar
    32    22    84   ar
    33    23    22   ar
    34    24    25   ar
    35    24    23   ar
    36    25    20   ar
    37    26    15   am
    38    26    25    1
    39    27    28    1
    40    27   151    2
    41    28    29   ar
    42    29    89    1
    43    30    29   ar
    44    30    71   ar
    45    31    30   ar
    46    32    33   ar
    47    32    31   ar
    48    33    28   ar
    49    34    16   am
    50    34    33    1
    51    35    17   am
    52    35    36    1
    53    36    41   ar
    54    37    36   ar
    55    37    38   ar
    56    38    39   ar
    57    39    40   ar
    58    39    75   ar
    59    40    92    1
    60    41    40   ar
    61    42    41    1
    62    42   145    2
    63    43    44    1
    64    44    45   ar
    65    44    49   ar
    66    45    46   ar
    67    46    47   ar
    68    46    80   ar
    69    47    79   ar
    70    48    94    1
    71    48    47   ar
    72    49    48   ar
    73    50   148    2
    74    50    49    1
    75    51    15    1
    76    51    95    1
    77    52    53    1
    78    52    55    1
    79    52    51    1
    80    53    98    1
    81    54    52    1
    82    55   104    1
    83    56    16    1
    84    56   105    1
    85    57    56    1
    86    57    60    1
    87    58    57    1
    88    58   108    1
    89    59   110    1
    90    59    57    1
    91    60   112    1
    92    60   113    1
    93    61   115    1
    94    61    62    1
    95    61    17    1
    96    62    64    1
    97    62    65    1
    98    63   118    1
    99    63    62    1
   100    64   120    1
   101    64   121    1
   102    65   124    1
   103    65   123    1
   104    66   125    1
   105    66    18    1
   106    67    68    1
   107    67    66    1
   108    68   128    1
   109    68   126    1
   110    69   130    1
   111    69    67    1
   112    70    67    1
   113    70   132    1
   114    71   158    1
   115    72    31   ar
   116    72    73   ar
   117    73    74   ar
   118    74    71   ar
   119    74   136    1
   120    75   142    1
   121    76    38   ar
   122    76    78   ar
   123    77    75   ar
   124    77   137    1
   125    78    77   ar
   126    79   144    1
   127    79    81   ar
   128    80    82   ar
   129    81   139    1
   130    82   140    1
   131    82    81   ar
   132    83    23   ar
   133    83    86   ar
   134    84   153    1
   135    85    84   ar
   136    85   154    1
   137    86    85   ar
   138    88    24    1
   139    90    32    1
   140    91    37    1
   141    93    45    1
   142    96    53    1
   143    97    53    1
   144    99    54    1
   145   100    54    1
   146   101    54    1
   147   102    55    1
   148   103    55    1
   149   106    58    1
   150   107    58    1
   151   109    59    1
   152   111    59    1
   153   114    60    1
   154   116    63    1
   155   117    63    1
   156   119    64    1
   157   122    65    1
   158   127    68    1
   159   129    69    1
   160   131    69    1
   161   133    70    1
   162   134    70    1
   163   135    73    1
   164   138    78    1
   165   141    72    1
   166   143    83    1
   167   146    35    2
   168   147    43    2
   169   150    26    2
   170   152    34    2
   171   155    86    1
   172   156    80    1
   173   157    76    1
