@<TRIPOS>MOLECULE
RhRh_ACB4_18_sp
 114 129 0 0 0
SMALL
GASTEIGER

@<TRIPOS>ATOM
      1 Rh          0.3570   -0.9096    0.6396 Rh      1  UNL1        0.0000
      2 Rh          0.1847    0.4765   -1.3059 Rh      1  UNL1        0.0000
      3 C           1.6337    1.6625    0.8961 C.3     1  UNL1        0.0000
      4 C          -1.1839   -2.0551   -1.4900 C.3     1  UNL1        0.0000
      5 C           2.5983   -1.0976   -1.1600 C.3     1  UNL1        0.0000
      6 C          -1.8884    0.9118    0.6365 C.3     1  UNL1        0.0000
      7 O          -1.4054   -0.0604    1.2903 O.3     1  UNL1        0.0000
      8 O          -1.5159    1.2998   -0.5177 O.3     1  UNL1        0.0000
      9 O          -0.6631   -2.3710   -0.3792 O.3     1  UNL1        0.0000
     10 O          -0.9578   -0.9963   -2.1595 O.3     1  UNL1        0.0000
     11 O           2.1561   -1.5852   -0.0717 O.3     1  UNL1        0.0000
     12 O           1.9626   -0.3396   -1.9563 O.3     1  UNL1        0.0000
     13 O           1.3728    0.6145    1.5625 O.3     1  UNL1        0.0000
     14 O           1.2858    1.8950   -0.3052 O.3     1  UNL1        0.0000
     15 N          -3.4928    1.0741    2.4628 N.am    1  UNL1        0.0000
     16 N          -3.3426   -2.2487   -2.5287 N.am    1  UNL1        0.0000
     17 N           4.5789   -2.3805   -0.5850 N.am    1  UNL1        0.0000
     18 N           2.5884    3.8808    0.7308 N.am    1  UNL1        0.0000
     19 C          -2.9386    1.7775    1.3235 C.3     1  UNL1        0.0000
     20 C          -3.9311    2.4699    0.3458 C.3     1  UNL1        0.0000
     21 C          -3.0450    3.7395    0.3616 C.3     1  UNL1        0.0000
     22 C          -2.3353    3.1968    1.6229 C.3     1  UNL1        0.0000
     23 C          -2.7596    0.8882    3.6557 C.2     1  UNL1        0.0000
     24 C          -3.5533   -0.0743    4.4700 C.ar    1  UNL1        0.0000
     25 C          -3.3110   -0.5878    5.7344 C.ar    1  UNL1        0.0000
     26 C          -4.2463   -1.4932    6.2507 C.ar    1  UNL1        0.0000
     27 C          -5.3817   -1.8577    5.5162 C.ar    1  UNL1        0.0000
     28 C          -5.6189   -1.3281    4.2418 C.ar    1  UNL1        0.0000
     29 C          -4.6845   -0.4365    3.7392 C.ar    1  UNL1        0.0000
     30 C          -4.6531    0.2817    2.4333 C.2     1  UNL1        0.0000
     31 C          -2.1728   -3.0283   -2.1205 C.3     1  UNL1        0.0000
     32 C          -2.5713   -4.2905   -1.3103 C.3     1  UNL1        0.0000
     33 C          -2.4192   -5.1317   -2.6024 C.3     1  UNL1        0.0000
     34 C          -1.5818   -3.9798   -3.2082 C.3     1  UNL1        0.0000
     35 C          -3.9994   -1.4888   -1.5348 C.2     1  UNL1        0.0000
     36 C          -5.0359   -0.6892   -2.2318 C.ar    1  UNL1        0.0000
     37 C          -5.9867    0.1841   -1.7234 C.ar    1  UNL1        0.0000
     38 C          -6.8247    0.8162   -2.6516 C.ar    1  UNL1        0.0000
     39 C          -6.7038    0.5719   -4.0253 C.ar    1  UNL1        0.0000
     40 C          -5.7411   -0.3165   -4.5220 C.ar    1  UNL1        0.0000
     41 C          -4.9153   -0.9378   -3.5989 C.ar    1  UNL1        0.0000
     42 C          -3.8066   -1.9158   -3.8176 C.2     1  UNL1        0.0000
     43 C           4.0480   -1.3925   -1.5147 C.3     1  UNL1        0.0000
     44 C           4.9521   -0.1164   -1.6625 C.3     1  UNL1        0.0000
     45 C           5.5315   -0.6936   -2.9735 C.3     1  UNL1        0.0000
     46 C           4.3611   -1.7023   -3.0123 C.3     1  UNL1        0.0000
     47 C           4.9764   -2.0666    0.7349 C.2     1  UNL1        0.0000
     48 C           5.1040   -3.3695    1.4445 C.ar    1  UNL1        0.0000
     49 C           5.5353   -3.6439    2.7332 C.ar    1  UNL1        0.0000
     50 C           5.5188   -4.9823    3.1438 C.ar    1  UNL1        0.0000
     51 C           5.0785   -5.9975    2.2845 C.ar    1  UNL1        0.0000
     52 C           4.6402   -5.7072    0.9870 C.ar    1  UNL1        0.0000
     53 C           4.6662   -4.3791    0.5898 C.ar    1  UNL1        0.0000
     54 C           4.2420   -3.7501   -0.6906 C.2     1  UNL1        0.0000
     55 C           2.4412    2.7366    1.6097 C.3     1  UNL1        0.0000
     56 C           3.7505    2.1684    2.2464 C.3     1  UNL1        0.0000
     57 C           3.0276    2.0908    3.6136 C.3     1  UNL1        0.0000
     58 C           1.9161    3.0131    3.0543 C.3     1  UNL1        0.0000
     59 C           1.5508    4.8087    0.5233 C.2     1  UNL1        0.0000
     60 C           1.9483    5.6037   -0.6723 C.ar    1  UNL1        0.0000
     61 C           1.3267    6.6867   -1.2738 C.ar    1  UNL1        0.0000
     62 C           1.9266    7.2150   -2.4236 C.ar    1  UNL1        0.0000
     63 C           3.1055    6.6647   -2.9422 C.ar    1  UNL1        0.0000
     64 C           3.7232    5.5682   -2.3280 C.ar    1  UNL1        0.0000
     65 C           3.1226    5.0552   -1.1890 C.ar    1  UNL1        0.0000
     66 C           3.5097    3.8958   -0.3364 C.2     1  UNL1        0.0000
     67 H          -4.0865    1.9635   -0.6059 H       1  UNL1        0.0000
     68 H          -4.8936    2.6213    0.8341 H       1  UNL1        0.0000
     69 H          -3.5600    4.6972    0.4653 H       1  UNL1        0.0000
     70 H          -2.3721    3.7822   -0.4955 H       1  UNL1        0.0000
     71 H          -2.7644    3.5823    2.5491 H       1  UNL1        0.0000
     72 H          -1.2511    3.2784    1.6756 H       1  UNL1        0.0000
     73 H          -6.0870   -2.5635    5.9433 H       1  UNL1        0.0000
     74 H          -6.4927   -1.6023    3.6608 H       1  UNL1        0.0000
     75 H          -1.8017   -4.5126   -0.5702 H       1  UNL1        0.0000
     76 H          -3.5434   -4.2506   -0.8175 H       1  UNL1        0.0000
     77 H          -1.9375   -6.1077   -2.5130 H       1  UNL1        0.0000
     78 H          -3.3698   -5.2521   -3.1292 H       1  UNL1        0.0000
     79 H          -1.7394   -3.6980   -4.2447 H       1  UNL1        0.0000
     80 H          -0.5142   -4.1124   -3.0133 H       1  UNL1        0.0000
     81 H          -7.5824    1.5097   -2.3007 H       1  UNL1        0.0000
     82 H          -7.3684    1.0812   -4.7163 H       1  UNL1        0.0000
     83 H          -5.6362   -0.5141   -5.5832 H       1  UNL1        0.0000
     84 H           4.3276    0.7625   -1.8227 H       1  UNL1        0.0000
     85 H           5.6258    0.0806   -0.8333 H       1  UNL1        0.0000
     86 H           5.6213   -0.0070   -3.8183 H       1  UNL1        0.0000
     87 H           6.4957   -1.1851   -2.8176 H       1  UNL1        0.0000
     88 H           4.5726   -2.7440   -3.2426 H       1  UNL1        0.0000
     89 H           3.5317   -1.3546   -3.6297 H       1  UNL1        0.0000
     90 H           5.8658   -2.8467    3.3901 H       1  UNL1        0.0000
     91 H           5.8479   -5.2399    4.1455 H       1  UNL1        0.0000
     92 H           5.0738   -7.0248    2.6347 H       1  UNL1        0.0000
     93 H           4.2885   -6.4819    0.3144 H       1  UNL1        0.0000
     94 H           4.1412    1.2488    1.8117 H       1  UNL1        0.0000
     95 H           4.5276    2.9337    2.2234 H       1  UNL1        0.0000
     96 H           2.6554    1.0871    3.8220 H       1  UNL1        0.0000
     97 H           3.5798    2.4598    4.4811 H       1  UNL1        0.0000
     98 H           2.0671    4.0633    3.3076 H       1  UNL1        0.0000
     99 H           0.8785    2.7396    3.2473 H       1  UNL1        0.0000
    100 H           0.4101    7.0985   -0.8656 H       1  UNL1        0.0000
    101 H           4.6325    5.1282   -2.7228 H       1  UNL1        0.0000
    102 O          -3.4059   -2.3432   -4.8811 O.2     1  UNL1        0.0000
    103 O          -3.6986   -1.5104   -0.3573 O.2     1  UNL1        0.0000
    104 O           5.1601   -0.9558    1.1900 O.2     1  UNL1        0.0000
    105 O           3.6934   -4.2743   -1.6383 O.2     1  UNL1        0.0000
    106 O           4.4128    3.1015   -0.5035 O.2     1  UNL1        0.0000
    107 O           0.5410    4.9044    1.1927 O.2     1  UNL1        0.0000
    108 O          -5.4700    0.2281    1.5352 O.2     1  UNL1        0.0000
    109 O          -1.7116    1.4319    3.9356 O.2     1  UNL1        0.0000
    110 H          -2.4276   -0.2965    6.2921 H       1  UNL1        0.0000
    111 H          -4.0904   -1.9220    7.2356 H       1  UNL1        0.0000
    112 H          -6.0610    0.3582   -0.6557 H       1  UNL1        0.0000
    113 H           1.4701    8.0623   -2.9254 H       1  UNL1        0.0000
    114 H           3.5435    7.0946   -3.8375 H       1  UNL1        0.0000
@<TRIPOS>BOND
     1     1     7    1
     2     1    13    1
     3     2     8    1
     4     2    14    1
     5     2     1    1
     6     3    13    1
     7     3    55    1
     8     4     9    1
     9     5    11    1
    10     6     7    1
    11     6    19    1
    12     8     6    1
    13     9     1    1
    14    10     4    1
    15    10     2    1
    16    11     1    1
    17    12     2    1
    18    12     5    1
    19    14     3    1
    20    15    23   am
    21    16    31    1
    22    16    35   am
    23    17    47   am
    24    18    55    1
    25    19    22    1
    26    19    15    1
    27    20    21    1
    28    20    68    1
    29    20    19    1
    30    21    69    1
    31    21    22    1
    32    22    72    1
    33    22    71    1
    34    23   109    2
    35    23    24    1
    36    24    25   ar
    37    25    26   ar
    38    25   110    1
    39    26   111    1
    40    27    73    1
    41    27    26   ar
    42    28    27   ar
    43    29    28   ar
    44    29    24   ar
    45    30    15   am
    46    30    29    1
    47    31     4    1
    48    31    32    1
    49    32    76    1
    50    32    75    1
    51    33    77    1
    52    33    32    1
    53    34    80    1
    54    34    33    1
    55    34    31    1
    56    35   103    2
    57    36    37   ar
    58    36    35    1
    59    37   112    1
    60    38    81    1
    61    38    37   ar
    62    39    38   ar
    63    40    39   ar
    64    40    41   ar
    65    41    36   ar
    66    42    41    1
    67    42    16   am
    68    43     5    1
    69    43    17    1
    70    44    43    1
    71    44    85    1
    72    45    87    1
    73    45    44    1
    74    46    45    1
    75    46    43    1
    76    47   104    2
    77    47    48    1
    78    48    49   ar
    79    49    50   ar
    80    49    90    1
    81    50    91    1
    82    51    92    1
    83    51    50   ar
    84    52    51   ar
    85    53    52   ar
    86    53    48   ar
    87    54    17   am
    88    54    53    1
    89    55    56    1
    90    55    58    1
    91    56    57    1
    92    57    96    1
    93    57    97    1
    94    58    99    1
    95    58    98    1
    96    58    57    1
    97    59    18   am
    98    59   107    2
    99    60    59    1
   100    61   100    1
   101    61    60   ar
   102    62    61   ar
   103    63    62   ar
   104    63    64   ar
   105    64    65   ar
   106    65    60   ar
   107    65    66    1
   108    66    18   am
   109    67    20    1
   110    70    21    1
   111    74    28    1
   112    78    33    1
   113    79    34    1
   114    82    39    1
   115    83    40    1
   116    84    44    1
   117    86    45    1
   118    88    46    1
   119    89    46    1
   120    93    52    1
   121    94    56    1
   122    95    56    1
   123   101    64    1
   124   102    42    2
   125   105    54    2
   126   106    66    2
   127   108    30    2
   128   113    62    1
   129   114    63    1
