@<TRIPOS>MOLECULE
RhRh_S-NTTL4_9_sp
 158 173 0 0 0
SMALL
GASTEIGER

@<TRIPOS>ATOM
      1 Rh          0.0012   -0.0016   -0.2763 Rh      1  UNL1        0.0000
      2 Rh          0.0005   -0.0009   -2.6668 Rh      1  UNL1        0.0000
      3 C           1.4381   -2.1912   -1.4711 C.3     1  UNL1        0.0000
      4 C           2.1915    1.4354   -1.4704 C.3     1  UNL1        0.0000
      5 C          -1.4366    2.1888   -1.4690 C.3     1  UNL1        0.0000
      6 C          -2.1897   -1.4380   -1.4691 C.3     1  UNL1        0.0000
      7 O           1.6668    1.1849   -0.3390 O.3     1  UNL1        0.0000
      8 O           1.7055    1.1423   -2.6022 O.3     1  UNL1        0.0000
      9 O           1.1879   -1.6671   -0.3394 O.3     1  UNL1        0.0000
     10 O           1.1443   -1.7051   -2.6027 O.3     1  UNL1        0.0000
     11 O          -1.6647   -1.1884   -0.3377 O.3     1  UNL1        0.0000
     12 O          -1.7042   -1.1442   -2.6009 O.3     1  UNL1        0.0000
     13 O          -1.1856    1.6639   -0.3379 O.3     1  UNL1        0.0000
     14 O          -1.1437    1.7034   -2.6011 O.3     1  UNL1        0.0000
     15 N           4.2814    1.6702   -0.2672 N.am    1  UNL1        0.0000
     16 N           1.6740   -4.2805   -0.2675 N.am    1  UNL1        0.0000
     17 N          -4.2802   -1.6726   -0.2661 N.am    1  UNL1        0.0000
     18 N          -1.6711    4.2792   -0.2666 N.am    1  UNL1        0.0000
     19 C           3.4982    2.2250   -1.3954 C.3     1  UNL1        0.0000
     20 C           4.3957    0.2704   -0.1747 C.2     1  UNL1        0.0000
     21 C           5.0032   -0.2806    1.0522 C.ar    1  UNL1        0.0000
     22 C           5.0999   -1.6512    1.2085 C.ar    1  UNL1        0.0000
     23 C           5.6634   -2.1953    2.3803 C.ar    1  UNL1        0.0000
     24 C           6.1393   -1.3685    3.3760 C.ar    1  UNL1        0.0000
     25 C           6.0543    0.0431    3.2499 C.ar    1  UNL1        0.0000
     26 C           6.5176    0.9377    4.2474 C.ar    1  UNL1        0.0000
     27 C           6.3920    2.3029    4.0874 C.ar    1  UNL1        0.0000
     28 C           5.7896    2.8327    2.9294 C.ar    1  UNL1        0.0000
     29 C           5.3303    1.9894    1.9330 C.ar    1  UNL1        0.0000
     30 C           5.4639    0.5873    2.0705 C.ar    1  UNL1        0.0000
     31 C           4.6626    2.5630    0.7437 C.2     1  UNL1        0.0000
     32 C           4.2959    2.4689   -2.7105 C.3     1  UNL1        0.0000
     33 C           4.6604    1.1879   -3.4786 C.3     1  UNL1        0.0000
     34 C           3.4388    3.3871   -3.6066 C.3     1  UNL1        0.0000
     35 C           5.5917    3.2203   -2.3503 C.3     1  UNL1        0.0000
     36 C           2.2280   -3.4981   -1.3967 C.3     1  UNL1        0.0000
     37 C           2.5675   -4.6623    0.7422 C.2     1  UNL1        0.0000
     38 C           1.9946   -5.3280    1.9330 C.ar    1  UNL1        0.0000
     39 C           2.8386   -5.7871    2.9289 C.ar    1  UNL1        0.0000
     40 C           2.3095   -6.3873    4.0884 C.ar    1  UNL1        0.0000
     41 C           0.9444   -6.5111    4.2502 C.ar    1  UNL1        0.0000
     42 C           0.0491   -6.0482    3.2532 C.ar    1  UNL1        0.0000
     43 C          -1.3624   -6.1316    3.3809 C.ar    1  UNL1        0.0000
     44 C          -2.1899   -5.6565    2.3855 C.ar    1  UNL1        0.0000
     45 C          -1.6466   -5.0952    1.2122 C.ar    1  UNL1        0.0000
     46 C          -0.2761   -5.0000    1.0543 C.ar    1  UNL1        0.0000
     47 C           0.5925   -5.4599    2.0724 C.ar    1  UNL1        0.0000
     48 C           0.2742   -4.3941   -0.1737 C.2     1  UNL1        0.0000
     49 C           2.4703   -4.2962   -2.7118 C.3     1  UNL1        0.0000
     50 C           3.3881   -3.4398   -3.6091 C.3     1  UNL1        0.0000
     51 C           3.2214   -5.5921   -2.3518 C.3     1  UNL1        0.0000
     52 C           1.1884   -4.6605   -3.4786 C.3     1  UNL1        0.0000
     53 C          -3.4973   -2.2266   -1.3946 C.3     1  UNL1        0.0000
     54 C          -4.6630   -2.5661    0.7434 C.2     1  UNL1        0.0000
     55 C          -5.3363   -1.9936    1.9302 C.ar    1  UNL1        0.0000
     56 C          -5.7995   -2.8377    2.9239 C.ar    1  UNL1        0.0000
     57 C          -6.4078   -2.3091    4.0795 C.ar    1  UNL1        0.0000
     58 C          -6.5353   -0.9440    4.2395 C.ar    1  UNL1        0.0000
     59 C          -6.0682   -0.0486    3.2446 C.ar    1  UNL1        0.0000
     60 C          -6.1550    1.3629    3.3710 C.ar    1  UNL1        0.0000
     61 C          -5.6751    2.1906    2.3780 C.ar    1  UNL1        0.0000
     62 C          -5.1057    1.6477    1.2085 C.ar    1  UNL1        0.0000
     63 C          -5.0075    0.2772    1.0518 C.ar    1  UNL1        0.0000
     64 C          -5.4719   -0.5916    2.0676 C.ar    1  UNL1        0.0000
     65 C          -4.3951   -0.2728   -0.1732 C.2     1  UNL1        0.0000
     66 C          -4.2954   -2.4684   -2.7100 C.3     1  UNL1        0.0000
     67 C          -4.6592   -1.1860   -3.4763 C.3     1  UNL1        0.0000
     68 C          -3.4392   -3.3863   -3.6075 C.3     1  UNL1        0.0000
     69 C          -5.5916   -3.2193   -2.3507 C.3     1  UNL1        0.0000
     70 C          -2.2274    3.4947   -1.3933 C.3     1  UNL1        0.0000
     71 C          -2.5623    4.6621    0.7449 C.2     1  UNL1        0.0000
     72 C          -1.9872    5.3338    1.9312 C.ar    1  UNL1        0.0000
     73 C          -2.8290    5.7953    2.9278 C.ar    1  UNL1        0.0000
     74 C          -2.2977    6.4020    4.0829 C.ar    1  UNL1        0.0000
     75 C          -0.9324    6.5300    4.2397 C.ar    1  UNL1        0.0000
     76 C          -0.0392    6.0647    3.2419 C.ar    1  UNL1        0.0000
     77 C           1.3726    6.1519    3.3649 C.ar    1  UNL1        0.0000
     78 C           2.1980    5.6734    2.3693 C.ar    1  UNL1        0.0000
     79 C           1.6523    5.1053    1.2004 C.ar    1  UNL1        0.0000
     80 C           0.2815    5.0067    1.0470 C.ar    1  UNL1        0.0000
     81 C          -0.5849    5.4696    2.0656 C.ar    1  UNL1        0.0000
     82 C          -0.2712    4.3948   -0.1769 C.2     1  UNL1        0.0000
     83 C          -2.4742    4.2916   -2.7083 C.3     1  UNL1        0.0000
     84 C          -3.3921    3.4325   -3.6030 C.3     1  UNL1        0.0000
     85 C          -3.2272    5.5862   -2.3475 C.3     1  UNL1        0.0000
     86 C          -1.1947    4.6577   -3.4781 C.3     1  UNL1        0.0000
     87 H           3.1908    3.2114   -1.0435 H       1  UNL1        0.0000
     88 H           4.7301   -2.3093    0.4343 H       1  UNL1        0.0000
     89 H           5.7097   -3.2737    2.4815 H       1  UNL1        0.0000
     90 H           6.9726    0.5299    5.1456 H       1  UNL1        0.0000
     91 H           6.7522    2.9758    4.8586 H       1  UNL1        0.0000
     92 H           5.6723    3.9020    2.7972 H       1  UNL1        0.0000
     93 H           5.3404    0.5544   -2.9061 H       1  UNL1        0.0000
     94 H           5.1608    1.4648   -4.4133 H       1  UNL1        0.0000
     95 H           3.7744    0.5997   -3.7168 H       1  UNL1        0.0000
     96 H           3.1612    4.3065   -3.0796 H       1  UNL1        0.0000
     97 H           2.5228    2.8902   -3.9265 H       1  UNL1        0.0000
     98 H           4.0113    3.6687   -4.4962 H       1  UNL1        0.0000
     99 H           5.3842    4.1384   -1.7944 H       1  UNL1        0.0000
    100 H           6.1273    3.4837   -3.2675 H       1  UNL1        0.0000
    101 H           6.2587    2.6000   -1.7438 H       1  UNL1        0.0000
    102 H           3.2147   -3.1907   -1.0459 H       1  UNL1        0.0000
    103 H           3.9079   -5.6715    2.7951 H       1  UNL1        0.0000
    104 H          -1.7799   -6.5706    4.2828 H       1  UNL1        0.0000
    105 H          -3.2683   -5.7014    2.4879 H       1  UNL1        0.0000
    106 H          -2.3050   -4.7259    0.4381 H       1  UNL1        0.0000
    107 H           2.8914   -2.5234   -3.9286 H       1  UNL1        0.0000
    108 H           3.6684   -4.0125   -4.4990 H       1  UNL1        0.0000
    109 H           4.3082   -3.1628   -3.0830 H       1  UNL1        0.0000
    110 H           4.1401   -5.3849   -1.7970 H       1  UNL1        0.0000
    111 H           3.4834   -6.1284   -3.2690 H       1  UNL1        0.0000
    112 H           2.6012   -6.2584   -1.7442 H       1  UNL1        0.0000
    113 H           0.5999   -3.7745   -3.7161 H       1  UNL1        0.0000
    114 H           0.5555   -5.3406   -2.9055 H       1  UNL1        0.0000
    115 H           1.4643   -5.1608   -4.4136 H       1  UNL1        0.0000
    116 H          -3.1911   -3.2137   -1.0437 H       1  UNL1        0.0000
    117 H          -5.6808   -3.9069    2.7917 H       1  UNL1        0.0000
    118 H          -6.7710   -2.9827    4.8486 H       1  UNL1        0.0000
    119 H          -6.9947   -0.5370    5.1358 H       1  UNL1        0.0000
    120 H          -4.7326    2.3066    0.4365 H       1  UNL1        0.0000
    121 H          -5.1597   -1.4614   -4.4113 H       1  UNL1        0.0000
    122 H          -3.7728   -0.5981   -3.7138 H       1  UNL1        0.0000
    123 H          -5.3388   -0.5530   -2.9029 H       1  UNL1        0.0000
    124 H          -4.0118   -3.6656   -4.4978 H       1  UNL1        0.0000
    125 H          -3.1635   -4.3071   -3.0819 H       1  UNL1        0.0000
    126 H          -2.5223   -2.8902   -3.9261 H       1  UNL1        0.0000
    127 H          -6.2582   -2.5993   -1.7434 H       1  UNL1        0.0000
    128 H          -5.3849   -4.1383   -1.7960 H       1  UNL1        0.0000
    129 H          -6.1275   -3.4812   -3.2682 H       1  UNL1        0.0000
    130 H          -3.2127    3.1865   -1.0394 H       1  UNL1        0.0000
    131 H          -3.8985    5.6764    2.7980 H       1  UNL1        0.0000
    132 H          -2.9696    6.7636    4.8543 H       1  UNL1        0.0000
    133 H          -0.5233    6.9884    5.1356 H       1  UNL1        0.0000
    134 H           2.3093    4.7332    0.4264 H       1  UNL1        0.0000
    135 H          -4.3104    3.1538   -3.0749 H       1  UNL1        0.0000
    136 H          -2.8939    2.5171   -3.9229 H       1  UNL1        0.0000
    137 H          -3.6755    4.0040   -4.4927 H       1  UNL1        0.0000
    138 H          -4.1443    5.3775   -1.7903 H       1  UNL1        0.0000
    139 H          -3.4927    6.1211   -3.2645 H       1  UNL1        0.0000
    140 H          -2.6072    6.2544   -1.7420 H       1  UNL1        0.0000
    141 H          -0.5617    5.3394   -2.9070 H       1  UNL1        0.0000
    142 H          -1.4736    5.1566   -4.4130 H       1  UNL1        0.0000
    143 H          -0.6051    3.7725   -3.7160 H       1  UNL1        0.0000
    144 O           3.9870   -0.4420   -1.0818 O.2     1  UNL1        0.0000
    145 O           4.4528    3.7684    0.6393 O.2     1  UNL1        0.0000
    146 O           0.4399    3.9853   -1.0848 O.2     1  UNL1        0.0000
    147 O          -3.7677    4.4509    0.6432 O.2     1  UNL1        0.0000
    148 O          -0.4387   -3.9872   -1.0812 O.2     1  UNL1        0.0000
    149 O           3.7731   -4.4548    0.6359 O.2     1  UNL1        0.0000
    150 O          -4.4518   -3.7712    0.6391 O.2     1  UNL1        0.0000
    151 O          -3.9845    0.4400   -1.0790 O.2     1  UNL1        0.0000
    152 H          -6.6002    1.7800    4.2699 H       1  UNL1        0.0000
    153 H           1.7918    6.5961    4.2634 H       1  UNL1        0.0000
    154 H          -5.7228    3.2689    2.4797 H       1  UNL1        0.0000
    155 H           3.2766    5.7208    2.4685 H       1  UNL1        0.0000
    156 H           6.5801   -1.7865    4.2767 H       1  UNL1        0.0000
    157 H           0.5371   -6.9645    5.1495 H       1  UNL1        0.0000
    158 H           2.9830   -6.7472    4.8592 H       1  UNL1        0.0000
@<TRIPOS>BOND
     1     2    10    1
     2     2     8    1
     3     2    14    1
     4     2    12    1
     5     2     1    1
     6     3    36    1
     7     3     9    1
     8     4    19    1
     9     4     7    1
    10     5    70    1
    11     5    13    1
    12     6    53    1
    13     6    11    1
    14     7     1    1
    15     8     4    1
    16     9     1    1
    17    10     3    1
    18    11     1    1
    19    12     6    1
    20    13     1    1
    21    14     5    1
    22    15    20   am
    23    15    31   am
    24    16    48   am
    25    16    37   am
    26    17    65   am
    27    17    54   am
    28    18    82   am
    29    18    71   am
    30    19    87    1
    31    19    15    1
    32    20    21    1
    33    21    22   ar
    34    21    30   ar
    35    22    23   ar
    36    23    89    1
    37    23    24   ar
    38    24   156    1
    39    25    24   ar
    40    25    26   ar
    41    26    90    1
    42    27    26   ar
    43    27    91    1
    44    28    27   ar
    45    29    30   ar
    46    29    28   ar
    47    30    25   ar
    48    31    29    1
    49    32    35    1
    50    32    19    1
    51    33    93    1
    52    33    32    1
    53    34    96    1
    54    34    32    1
    55    35    99    1
    56    35   101    1
    57    36   102    1
    58    36    16    1
    59    37    38    1
    60    38    47   ar
    61    38    39   ar
    62    39    40   ar
    63    40    41   ar
    64    40   158    1
    65    41   157    1
    66    42    43   ar
    67    42    41   ar
    68    43   104    1
    69    44   105    1
    70    44    43   ar
    71    45    44   ar
    72    46    45   ar
    73    46    47   ar
    74    47    42   ar
    75    48    46    1
    76    49    51    1
    77    49    36    1
    78    50   109    1
    79    50    49    1
    80    51   110    1
    81    51   112    1
    82    52   114    1
    83    52    49    1
    84    53   116    1
    85    53    17    1
    86    54    55    1
    87    55    64   ar
    88    55    56   ar
    89    56    57   ar
    90    57    58   ar
    91    57   118    1
    92    58   119    1
    93    59    60   ar
    94    59    58   ar
    95    60   152    1
    96    61   154    1
    97    61    60   ar
    98    62    61   ar
    99    63    62   ar
   100    63    64   ar
   101    64    59   ar
   102    65    63    1
   103    66    69    1
   104    66    53    1
   105    67   123    1
   106    67    66    1
   107    68   125    1
   108    68    66    1
   109    69   128    1
   110    69   127    1
   111    70   130    1
   112    70    18    1
   113    71    72    1
   114    72    81   ar
   115    72    73   ar
   116    73    74   ar
   117    74    75   ar
   118    74   132    1
   119    75   133    1
   120    76    77   ar
   121    76    75   ar
   122    77   153    1
   123    78   155    1
   124    78    77   ar
   125    79    78   ar
   126    80    79   ar
   127    80    81   ar
   128    81    76   ar
   129    82    80    1
   130    83    85    1
   131    83    70    1
   132    84   135    1
   133    84    83    1
   134    85   138    1
   135    85   140    1
   136    86   141    1
   137    86    83    1
   138    88    22    1
   139    92    28    1
   140    94    33    1
   141    95    33    1
   142    97    34    1
   143    98    34    1
   144   100    35    1
   145   103    39    1
   146   106    45    1
   147   107    50    1
   148   108    50    1
   149   111    51    1
   150   113    52    1
   151   115    52    1
   152   117    56    1
   153   120    62    1
   154   121    67    1
   155   122    67    1
   156   124    68    1
   157   126    68    1
   158   129    69    1
   159   131    73    1
   160   134    79    1
   161   136    84    1
   162   137    84    1
   163   139    85    1
   164   142    86    1
   165   143    86    1
   166   144    20    2
   167   145    31    2
   168   146    82    2
   169   147    71    2
   170   148    48    2
   171   149    37    2
   172   150    54    2
   173   151    65    2
