@<TRIPOS>MOLECULE
RhRh_ACH4_7_sp
 138 153 0 0 0
SMALL
GASTEIGER

@<TRIPOS>ATOM
      1 Rh          0.0000    0.0000   -1.8150 Rh      1  UNL1        0.0000
      2 Rh          0.0000    0.0000    0.5754 Rh      1  UNL1        0.0000
      3 C          -1.5350    2.1346   -0.6180 C.3     1  UNL1        0.0000
      4 C          -2.1354   -1.5250   -0.6130 C.3     1  UNL1        0.0000
      5 C           1.5351   -2.1346   -0.6179 C.3     1  UNL1        0.0000
      6 C           2.1354    1.5252   -0.6130 C.3     1  UNL1        0.0000
      7 O           1.7047    1.1562   -1.7458 O.3     1  UNL1        0.0000
      8 O           1.5611    1.3351    0.5059 O.3     1  UNL1        0.0000
      9 O           1.1311   -1.7109   -1.7427 O.3     1  UNL1        0.0000
     10 O           1.3067   -1.5900    0.5073 O.3     1  UNL1        0.0000
     11 O          -1.5612   -1.3350    0.5059 O.3     1  UNL1        0.0000
     12 O          -1.7047   -1.1562   -1.7458 O.3     1  UNL1        0.0000
     13 O          -1.3067    1.5901    0.5073 O.3     1  UNL1        0.0000
     14 O          -1.1311    1.7109   -1.7427 O.3     1  UNL1        0.0000
     15 N           4.0865    2.0245    0.7212 N.am    1  UNL1        0.0000
     16 N           3.8028   -3.0343   -0.6204 N.am    1  UNL1        0.0000
     17 N          -4.0866   -2.0244    0.7211 N.am    1  UNL1        0.0000
     18 N          -3.8028    3.0342   -0.6204 N.am    1  UNL1        0.0000
     19 C           3.4541    2.3253   -0.5846 C.3     1  UNL1        0.0000
     20 C           3.0878    3.8191   -0.7734 C.3     1  UNL1        0.0000
     21 C           4.2961    4.7377   -1.0001 C.3     1  UNL1        0.0000
     22 C           5.2241    4.2263   -2.1065 C.3     1  UNL1        0.0000
     23 C           5.6238    2.7709   -1.8450 C.3     1  UNL1        0.0000
     24 C           4.3857    1.8804   -1.7367 C.3     1  UNL1        0.0000
     25 C           4.2504    0.6676    1.0734 C.2     1  UNL1        0.0000
     26 C           4.6749    0.6270    2.4898 C.ar    1  UNL1        0.0000
     27 C           4.9942   -0.4515    3.3033 C.ar    1  UNL1        0.0000
     28 C           5.3390   -0.1599    4.6294 C.ar    1  UNL1        0.0000
     29 C           5.3495    1.1573    5.1066 C.ar    1  UNL1        0.0000
     30 C           5.0081    2.2324    4.2762 C.ar    1  UNL1        0.0000
     31 C           4.6738    1.9367    2.9642 C.ar    1  UNL1        0.0000
     32 C           4.2297    2.8441    1.8654 C.2     1  UNL1        0.0000
     33 C           2.3673   -3.4444   -0.6069 C.3     1  UNL1        0.0000
     34 C           2.0698   -4.3043   -1.8573 C.3     1  UNL1        0.0000
     35 C           0.6241   -4.8163   -1.8922 C.3     1  UNL1        0.0000
     36 C           0.2555   -5.5843   -0.6212 C.3     1  UNL1        0.0000
     37 C           0.5460   -4.7326    0.6164 C.3     1  UNL1        0.0000
     38 C           2.0039   -4.2526    0.6586 C.3     1  UNL1        0.0000
     39 C           4.6849   -2.9898    0.4845 C.2     1  UNL1        0.0000
     40 C           5.9460   -2.3677   -0.0067 C.ar    1  UNL1        0.0000
     41 C           7.1212   -2.0901    0.6732 C.ar    1  UNL1        0.0000
     42 C           8.1227   -1.4090   -0.0297 C.ar    1  UNL1        0.0000
     43 C           7.9383   -1.0278   -1.3653 C.ar    1  UNL1        0.0000
     44 C           6.7472   -1.3197   -2.0408 C.ar    1  UNL1        0.0000
     45 C           5.7665   -1.9954   -1.3317 C.ar    1  UNL1        0.0000
     46 C           4.3907   -2.3781   -1.7394 C.2     1  UNL1        0.0000
     47 C          -3.4541   -2.3252   -0.5846 C.3     1  UNL1        0.0000
     48 C          -4.3857   -1.8803   -1.7367 C.3     1  UNL1        0.0000
     49 C          -5.6238   -2.7707   -1.8451 C.3     1  UNL1        0.0000
     50 C          -5.2241   -4.2262   -2.1065 C.3     1  UNL1        0.0000
     51 C          -4.2961   -4.7376   -1.0002 C.3     1  UNL1        0.0000
     52 C          -3.0878   -3.8189   -0.7735 C.3     1  UNL1        0.0000
     53 C          -4.2297   -2.8440    1.8654 C.2     1  UNL1        0.0000
     54 C          -4.6737   -1.9366    2.9642 C.ar    1  UNL1        0.0000
     55 C          -5.0078   -2.2322    4.2762 C.ar    1  UNL1        0.0000
     56 C          -5.3492   -1.1571    5.1066 C.ar    1  UNL1        0.0000
     57 C          -5.3389    0.1601    4.6294 C.ar    1  UNL1        0.0000
     58 C          -4.9943    0.4516    3.3032 C.ar    1  UNL1        0.0000
     59 C          -4.6750   -0.6269    2.4897 C.ar    1  UNL1        0.0000
     60 C          -4.2505   -0.6675    1.0733 C.2     1  UNL1        0.0000
     61 C          -2.3674    3.4444   -0.6071 C.3     1  UNL1        0.0000
     62 C          -2.0039    4.2529    0.6582 C.3     1  UNL1        0.0000
     63 C          -0.5461    4.7328    0.6158 C.3     1  UNL1        0.0000
     64 C          -0.2556    5.5842   -0.6220 C.3     1  UNL1        0.0000
     65 C          -0.6243    4.8160   -1.8928 C.3     1  UNL1        0.0000
     66 C          -2.0701    4.3040   -1.8577 C.3     1  UNL1        0.0000
     67 C          -4.3907    2.3776   -1.7393 C.2     1  UNL1        0.0000
     68 C          -5.7665    1.9949   -1.3315 C.ar    1  UNL1        0.0000
     69 C          -6.7471    1.3189   -2.0405 C.ar    1  UNL1        0.0000
     70 C          -7.9382    1.0271   -1.3649 C.ar    1  UNL1        0.0000
     71 C          -8.1227    1.4089   -0.0295 C.ar    1  UNL1        0.0000
     72 C          -7.1213    2.0902    0.6733 C.ar    1  UNL1        0.0000
     73 C          -5.9461    2.3677   -0.0067 C.ar    1  UNL1        0.0000
     74 C          -4.6850    2.9900    0.4844 C.2     1  UNL1        0.0000
     75 H           2.4457    3.8429   -1.6614 H       1  UNL1        0.0000
     76 H           2.4946    4.1688    0.0714 H       1  UNL1        0.0000
     77 H           3.9244    5.7396   -1.2441 H       1  UNL1        0.0000
     78 H           4.8511    4.8321   -0.0637 H       1  UNL1        0.0000
     79 H           6.1108    4.8663   -2.1770 H       1  UNL1        0.0000
     80 H           4.7130    4.2849   -3.0774 H       1  UNL1        0.0000
     81 H           6.2667    2.3946   -2.6484 H       1  UNL1        0.0000
     82 H           6.2096    2.7056   -0.9183 H       1  UNL1        0.0000
     83 H           4.6542    0.8333   -1.6057 H       1  UNL1        0.0000
     84 H           3.8020    1.9436   -2.6589 H       1  UNL1        0.0000
     85 H           5.5950   -0.9707    5.3041 H       1  UNL1        0.0000
     86 H           5.6173    1.3450    6.1417 H       1  UNL1        0.0000
     87 H           4.9951    3.2550    4.6371 H       1  UNL1        0.0000
     88 H           2.2877   -3.7327   -2.7556 H       1  UNL1        0.0000
     89 H           2.7631   -5.1539   -1.8194 H       1  UNL1        0.0000
     90 H          -0.0516   -3.9625   -2.0192 H       1  UNL1        0.0000
     91 H           0.4960   -5.4481   -2.7781 H       1  UNL1        0.0000
     92 H           0.8452   -6.5100   -0.5702 H       1  UNL1        0.0000
     93 H          -0.7986   -5.8832   -0.6435 H       1  UNL1        0.0000
     94 H           0.3396   -5.2981    1.5314 H       1  UNL1        0.0000
     95 H          -0.1237   -3.8638    0.6373 H       1  UNL1        0.0000
     96 H           2.6764   -5.1148    0.7117 H       1  UNL1        0.0000
     97 H           2.1763   -3.6533    1.5473 H       1  UNL1        0.0000
     98 H           7.2474   -2.3792    1.7108 H       1  UNL1        0.0000
     99 H           9.0564   -1.1664    0.4678 H       1  UNL1        0.0000
    100 H           8.7314   -0.4952   -1.8805 H       1  UNL1        0.0000
    101 H          -3.8020   -1.9435   -2.6590 H       1  UNL1        0.0000
    102 H          -4.6542   -0.8331   -1.6058 H       1  UNL1        0.0000
    103 H          -6.2667   -2.3944   -2.6485 H       1  UNL1        0.0000
    104 H          -6.2096   -2.7055   -0.9184 H       1  UNL1        0.0000
    105 H          -6.1108   -4.8662   -2.1770 H       1  UNL1        0.0000
    106 H          -4.7131   -4.2848   -3.0775 H       1  UNL1        0.0000
    107 H          -3.9244   -5.7394   -1.2442 H       1  UNL1        0.0000
    108 H          -4.8511   -4.8320   -0.0638 H       1  UNL1        0.0000
    109 H          -2.4944   -4.1687    0.0712 H       1  UNL1        0.0000
    110 H          -2.4457   -3.8427   -1.6616 H       1  UNL1        0.0000
    111 H          -5.6169   -1.3448    6.1417 H       1  UNL1        0.0000
    112 H          -5.5949    0.9709    5.3040 H       1  UNL1        0.0000
    113 H          -4.9577    1.4702    2.9302 H       1  UNL1        0.0000
    114 H          -2.1762    3.6538    1.5471 H       1  UNL1        0.0000
    115 H          -2.6765    5.1151    0.7111 H       1  UNL1        0.0000
    116 H           0.1236    3.8640    0.6369 H       1  UNL1        0.0000
    117 H          -0.3396    5.2986    1.5307 H       1  UNL1        0.0000
    118 H          -0.8452    6.5100   -0.5711 H       1  UNL1        0.0000
    119 H           0.7985    5.8831   -0.6445 H       1  UNL1        0.0000
    120 H          -0.4963    5.4477   -2.7789 H       1  UNL1        0.0000
    121 H           0.0513    3.9622   -2.0197 H       1  UNL1        0.0000
    122 H          -2.7633    5.1536   -1.8198 H       1  UNL1        0.0000
    123 H          -2.2880    3.7323   -2.7558 H       1  UNL1        0.0000
    124 H          -6.5833    1.0228   -3.0709 H       1  UNL1        0.0000
    125 H          -8.7312    0.4943   -1.8799 H       1  UNL1        0.0000
    126 H          -9.0565    1.1664    0.4681 H       1  UNL1        0.0000
    127 O           4.0319    4.0387    1.9501 O.2     1  UNL1        0.0000
    128 O           4.0306   -0.2655    0.3255 O.2     1  UNL1        0.0000
    129 O           4.4818   -3.3792    1.6188 O.2     1  UNL1        0.0000
    130 O           3.8673   -2.1622   -2.8116 O.2     1  UNL1        0.0000
    131 O          -4.0317   -4.0385    1.9501 O.2     1  UNL1        0.0000
    132 O          -4.0307    0.2655    0.3253 O.2     1  UNL1        0.0000
    133 O          -4.4820    3.3797    1.6186 O.2     1  UNL1        0.0000
    134 O          -3.8671    2.1613   -2.8113 O.2     1  UNL1        0.0000
    135 H           4.9574   -1.4701    2.9305 H       1  UNL1        0.0000
    136 H           6.5835   -1.0240   -3.0714 H       1  UNL1        0.0000
    137 H          -4.9947   -3.2548    4.6372 H       1  UNL1        0.0000
    138 H          -7.2475    2.3798    1.7107 H       1  UNL1        0.0000
@<TRIPOS>BOND
     1     1    12    1
     2     1     7    1
     3     1    14    1
     4     1     9    1
     5     1     2    1
     6     3    61    1
     7     3    13    1
     8     4    47    1
     9     4    11    1
    10     5    33    1
    11     5    10    1
    12     6    19    1
    13     6     8    1
    14     7     6    1
    15     8     2    1
    16     9     5    1
    17    10     2    1
    18    11     2    1
    19    12     4    1
    20    13     2    1
    21    14     3    1
    22    15    25   am
    23    15    32   am
    24    16    33    1
    25    16    39   am
    26    17    60   am
    27    17    53   am
    28    18    61    1
    29    18    74   am
    30    19    15    1
    31    20    19    1
    32    20    76    1
    33    21    20    1
    34    21    78    1
    35    22    23    1
    36    22    21    1
    37    23    24    1
    38    23    82    1
    39    24    83    1
    40    24    19    1
    41    25    26    1
    42    26    31   ar
    43    26    27   ar
    44    27    28   ar
    45    28    29   ar
    46    28    85    1
    47    29    86    1
    48    30    87    1
    49    30    29   ar
    50    31    30   ar
    51    32   127    2
    52    32    31    1
    53    33    38    1
    54    34    89    1
    55    34    33    1
    56    35    34    1
    57    35    36    1
    58    36    92    1
    59    36    37    1
    60    37    95    1
    61    37    38    1
    62    37    94    1
    63    38    96    1
    64    38    97    1
    65    39   129    2
    66    40    39    1
    67    40    41   ar
    68    41    98    1
    69    42    99    1
    70    42    41   ar
    71    43    42   ar
    72    44    43   ar
    73    44    45   ar
    74    45    40   ar
    75    46    45    1
    76    46    16   am
    77    47    17    1
    78    48   102    1
    79    48    47    1
    80    49    48    1
    81    49   104    1
    82    50    49    1
    83    50    51    1
    84    51    52    1
    85    51   108    1
    86    52    47    1
    87    52   109    1
    88    53   131    2
    89    53    54    1
    90    54    55   ar
    91    55   137    1
    92    55    56   ar
    93    56   111    1
    94    57    56   ar
    95    57   112    1
    96    58    57   ar
    97    59    54   ar
    98    59    58   ar
    99    60    59    1
   100    61    62    1
   101    62   115    1
   102    62   114    1
   103    63   116    1
   104    63    62    1
   105    63   117    1
   106    64   118    1
   107    64    63    1
   108    65    66    1
   109    65    64    1
   110    66   122    1
   111    66    61    1
   112    67    68    1
   113    67    18   am
   114    68    73   ar
   115    69    70   ar
   116    69    68   ar
   117    70    71   ar
   118    71   126    1
   119    71    72   ar
   120    72   138    1
   121    73    74    1
   122    73    72   ar
   123    74   133    2
   124    75    20    1
   125    77    21    1
   126    79    22    1
   127    80    22    1
   128    81    23    1
   129    84    24    1
   130    88    34    1
   131    90    35    1
   132    91    35    1
   133    93    36    1
   134   100    43    1
   135   101    48    1
   136   103    49    1
   137   105    50    1
   138   106    50    1
   139   107    51    1
   140   110    52    1
   141   113    58    1
   142   119    64    1
   143   120    65    1
   144   121    65    1
   145   123    66    1
   146   124    69    1
   147   125    70    1
   148   128    25    2
   149   130    46    2
   150   132    60    2
   151   134    67    2
   152   135    27    1
   153   136    44    1
