@<TRIPOS>MOLECULE
RhRh_SS-diOBn-phthal-cat27_tBuCN_17_ONIOM_sp
 230 245 0 0 0
SMALL
GASTEIGER

@<TRIPOS>ATOM
      1 C           2.3426    2.5120   -1.3932 C.3     1  UNL1        0.0000
      2 C          -1.2897    2.7326   -2.3119 C.3     1  UNL1        0.0000
      3 C          -1.3207   -0.9033   -2.9275 C.3     1  UNL1        0.0000
      4 C           2.2087   -1.1535   -2.0439 C.3     1  UNL1        0.0000
      5 O          -1.1799    2.1162   -1.1981 O.3     1  UNL1        0.0000
      6 O          -0.6471    2.5101   -3.3786 O.3     1  UNL1        0.0000
      7 O          -1.1896   -0.7145   -1.6711 O.3     1  UNL1        0.0000
      8 O          -0.6568   -0.3624   -3.8596 O.3     1  UNL1        0.0000
      9 O           1.5949   -0.8841   -0.9567 O.3     1  UNL1        0.0000
     10 O           2.1547   -0.5201   -3.1376 O.3     1  UNL1        0.0000
     11 O           1.6502    1.9807   -0.4606 O.3     1  UNL1        0.0000
     12 O           2.1916    2.3702   -2.6417 O.3     1  UNL1        0.0000
     13 N          -2.2612    4.4740   -0.9304 N.am    1  UNL1        0.0000
     14 N          -3.5303   -1.7283   -2.3156 N.am    1  UNL1        0.0000
     15 N           2.3102   -3.4358   -1.2040 N.am    1  UNL1        0.0000
     16 N           4.1593    2.6837    0.2224 N.am    1  UNL1        0.0000
     17 C          -1.0260    4.7870   -0.3442 C.2     1  UNL1        0.0000
     18 C          -3.2853    4.3832    0.0154 C.2     1  UNL1        0.0000
     19 C          -4.0931   -0.4703   -2.0767 C.2     1  UNL1        0.0000
     20 C          -3.8574   -2.6492   -1.3161 C.2     1  UNL1        0.0000
     21 C           1.0123   -3.7859   -1.5671 C.2     1  UNL1        0.0000
     22 C           2.6628   -3.9090    0.0646 C.2     1  UNL1        0.0000
     23 C           4.1857    3.1175    1.5537 C.2     1  UNL1        0.0000
     24 C           4.6144    1.3712    0.0789 C.2     1  UNL1        0.0000
     25 C          -2.4008    3.8078   -2.2372 C.3     1  UNL1        0.0000
     26 C          -2.5565    4.7954   -3.4265 C.3     1  UNL1        0.0000
     27 C          -3.7157    5.7734   -3.1238 C.3     1  UNL1        0.0000
     28 C          -1.2755    5.6224   -3.6704 C.3     1  UNL1        0.0000
     29 C          -2.9223    4.0277   -4.7198 C.3     1  UNL1        0.0000
     30 C          -2.3900   -1.9809   -3.2101 C.3     1  UNL1        0.0000
     31 C          -2.8079   -2.2421   -4.6852 C.3     1  UNL1        0.0000
     32 C          -3.8950   -3.3414   -4.7169 C.3     1  UNL1        0.0000
     33 C          -1.5997   -2.7623   -5.5011 C.3     1  UNL1        0.0000
     34 C          -3.3775   -0.9796   -5.3687 C.3     1  UNL1        0.0000
     35 C           3.1134   -2.3979   -1.8686 C.3     1  UNL1        0.0000
     36 C           3.8935   -2.9219   -3.1085 C.3     1  UNL1        0.0000
     37 C           4.7120   -4.1690   -2.7011 C.3     1  UNL1        0.0000
     38 C           2.9632   -3.3240   -4.2756 C.3     1  UNL1        0.0000
     39 C           4.8892   -1.8447   -3.6004 C.3     1  UNL1        0.0000
     40 C           3.4370    3.4413   -0.8101 C.3     1  UNL1        0.0000
     41 C           4.3831    4.1772   -1.8028 C.3     1  UNL1        0.0000
     42 C           5.2111    3.1991   -2.6672 C.3     1  UNL1        0.0000
     43 C           3.5652    5.1104   -2.7271 C.3     1  UNL1        0.0000
     44 C           5.3692    5.0626   -1.0048 C.3     1  UNL1        0.0000
     45 C           1.4782   -4.7225    0.6219 C.3     1  UNL1        0.0000
     46 C           0.5139   -4.8535   -0.5851 C.3     1  UNL1        0.0000
     47 C          -5.0498   -2.0819   -0.5219 C.3     1  UNL1        0.0000
     48 C          -5.0565   -0.5918   -0.8832 C.3     1  UNL1        0.0000
     49 C          -2.7533    4.9370    1.3542 C.3     1  UNL1        0.0000
     50 C          -1.2347    4.8527    1.1757 C.3     1  UNL1        0.0000
     51 C           4.7477    1.9696    2.4161 C.3     1  UNL1        0.0000
     52 C           5.3496    1.0087    1.3739 C.3     1  UNL1        0.0000
     53 C           7.6120    0.3821    1.5310 C.3     1  UNL1        0.0000
     54 C           3.8773    0.9934    4.3724 C.3     1  UNL1        0.0000
     55 C          -4.3956    4.3785    2.9324 C.3     1  UNL1        0.0000
     56 C           0.7258    5.6158    2.1603 C.3     1  UNL1        0.0000
     57 C          -5.3304   -3.4617    1.3402 C.3     1  UNL1        0.0000
     58 C          -6.6018    1.1704   -1.0542 C.3     1  UNL1        0.0000
     59 C          -0.0948   -7.1141   -0.7638 C.3     1  UNL1        0.0000
     60 C           0.1270   -4.6462    2.5340 C.3     1  UNL1        0.0000
     61 C           7.7107   -0.6977    0.4870 C.ar    1  UNL1        0.0000
     62 C           7.3845   -2.0270    0.8011 C.ar    1  UNL1        0.0000
     63 C           8.1418   -0.3818   -0.8118 C.ar    1  UNL1        0.0000
     64 C           7.4994   -3.0269   -0.1688 C.ar    1  UNL1        0.0000
     65 C           8.2547   -1.3847   -1.7792 C.ar    1  UNL1        0.0000
     66 C           7.9371   -2.7067   -1.4571 C.ar    1  UNL1        0.0000
     67 C           4.5705   -0.3446    4.3750 C.ar    1  UNL1        0.0000
     68 C           3.9607   -1.4587    3.7732 C.ar    1  UNL1        0.0000
     69 C           5.8302   -0.4923    4.9787 C.ar    1  UNL1        0.0000
     70 C           4.6056   -2.6993    3.7736 C.ar    1  UNL1        0.0000
     71 C           6.4692   -1.7361    4.9794 C.ar    1  UNL1        0.0000
     72 C           5.8561   -2.8391    4.3798 C.ar    1  UNL1        0.0000
     73 C           0.9334   -5.3626    3.5827 C.ar    1  UNL1        0.0000
     74 C           1.7009   -4.6302    4.5024 C.ar    1  UNL1        0.0000
     75 C           0.9274   -6.7655    3.6530 C.ar    1  UNL1        0.0000
     76 C           2.4629   -5.2919    5.4696 C.ar    1  UNL1        0.0000
     77 C           1.6888   -7.4240    4.6237 C.ar    1  UNL1        0.0000
     78 C           2.4575   -6.6880    5.5300 C.ar    1  UNL1        0.0000
     79 C          -1.5483   -6.9834   -1.1398 C.ar    1  UNL1        0.0000
     80 C          -2.5393   -6.9423   -0.1449 C.ar    1  UNL1        0.0000
     81 C          -1.9256   -6.9202   -2.4911 C.ar    1  UNL1        0.0000
     82 C          -3.8879   -6.8365   -0.4985 C.ar    1  UNL1        0.0000
     83 C          -3.2755   -6.8156   -2.8403 C.ar    1  UNL1        0.0000
     84 C          -4.2557   -6.7702   -1.8451 C.ar    1  UNL1        0.0000
     85 C          -7.3131    1.4557    0.2475 C.ar    1  UNL1        0.0000
     86 C          -7.7946    0.4263    1.0816 C.ar    1  UNL1        0.0000
     87 C          -7.5175    2.7925    0.6290 C.ar    1  UNL1        0.0000
     88 C          -8.4577    0.7361    2.2733 C.ar    1  UNL1        0.0000
     89 C          -8.1704    3.0963    1.8273 C.ar    1  UNL1        0.0000
     90 C          -8.6396    2.0691    2.6491 C.ar    1  UNL1        0.0000
     91 C          -4.8122   -3.6722    2.7331 C.ar    1  UNL1        0.0000
     92 C          -5.4103   -3.0064    3.8152 C.ar    1  UNL1        0.0000
     93 C          -3.7054   -4.5066    2.9644 C.ar    1  UNL1        0.0000
     94 C          -4.9055   -3.1701    5.1088 C.ar    1  UNL1        0.0000
     95 C          -3.2052   -4.6699    4.2599 C.ar    1  UNL1        0.0000
     96 C          -3.8028   -3.9998    5.3307 C.ar    1  UNL1        0.0000
     97 C           1.4744    6.8745    2.4898 C.ar    1  UNL1        0.0000
     98 C           1.1081    7.6360    3.6116 C.ar    1  UNL1        0.0000
     99 C           2.5422    7.3051    1.6835 C.ar    1  UNL1        0.0000
    100 C           1.8042    8.8077    3.9251 C.ar    1  UNL1        0.0000
    101 C           3.2359    8.4767    2.0009 C.ar    1  UNL1        0.0000
    102 C           2.8678    9.2271    3.1211 C.ar    1  UNL1        0.0000
    103 C          -4.8925    3.1463    3.6316 C.ar    1  UNL1        0.0000
    104 C          -5.2317    3.1745    4.9946 C.ar    1  UNL1        0.0000
    105 C          -5.0005    1.9398    2.9207 C.ar    1  UNL1        0.0000
    106 C          -5.6686    2.0097    5.6344 C.ar    1  UNL1        0.0000
    107 C          -5.4325    0.7789    3.5654 C.ar    1  UNL1        0.0000
    108 C          -5.7675    0.8122    4.9205 C.ar    1  UNL1        0.0000
    109 H          -3.3291    3.2281   -2.1443 H       1  UNL1        0.0000
    110 H          -3.8841    6.4647   -3.9780 H       1  UNL1        0.0000
    111 H          -3.4934    6.3947   -2.2299 H       1  UNL1        0.0000
    112 H          -4.6599    5.2171   -2.9369 H       1  UNL1        0.0000
    113 H          -1.3963    6.2666   -4.5681 H       1  UNL1        0.0000
    114 H          -0.3931    4.9723   -3.8389 H       1  UNL1        0.0000
    115 H          -1.0657    6.2914   -2.8102 H       1  UNL1        0.0000
    116 H          -2.0776    3.4175   -5.0957 H       1  UNL1        0.0000
    117 H          -3.1915    4.7356   -5.5335 H       1  UNL1        0.0000
    118 H          -3.7919    3.3573   -4.5470 H       1  UNL1        0.0000
    119 H          -1.9355   -2.8979   -2.8143 H       1  UNL1        0.0000
    120 H          -3.5280   -4.2651   -4.2224 H       1  UNL1        0.0000
    121 H          -4.1737   -3.5944   -5.7628 H       1  UNL1        0.0000
    122 H          -4.8182   -3.0099   -4.1950 H       1  UNL1        0.0000
    123 H          -1.1329   -3.6373   -4.9991 H       1  UNL1        0.0000
    124 H          -0.8246   -1.9835   -5.6413 H       1  UNL1        0.0000
    125 H          -1.9204   -3.0823   -6.5162 H       1  UNL1        0.0000
    126 H          -2.6667   -0.1301   -5.3237 H       1  UNL1        0.0000
    127 H          -4.3333   -0.6696   -4.8982 H       1  UNL1        0.0000
    128 H          -3.5907   -1.1835   -6.4403 H       1  UNL1        0.0000
    129 H           3.8426   -2.0960   -1.1067 H       1  UNL1        0.0000
    130 H           4.0443   -5.0108   -2.4176 H       1  UNL1        0.0000
    131 H           5.3648   -3.9427   -1.8338 H       1  UNL1        0.0000
    132 H           5.3535   -4.5164   -3.5398 H       1  UNL1        0.0000
    133 H           2.3291   -4.1917   -4.0000 H       1  UNL1        0.0000
    134 H           3.5647   -3.6265   -5.1601 H       1  UNL1        0.0000
    135 H           2.3051   -2.4905   -4.5911 H       1  UNL1        0.0000
    136 H           5.5160   -1.4772   -2.7606 H       1  UNL1        0.0000
    137 H           4.3693   -0.9759   -4.0510 H       1  UNL1        0.0000
    138 H           5.5656   -2.2581   -4.3796 H       1  UNL1        0.0000
    139 H           2.8780    4.1979   -0.2484 H       1  UNL1        0.0000
    140 H           5.9043    2.6011   -2.0398 H       1  UNL1        0.0000
    141 H           5.8316    3.7613   -3.3982 H       1  UNL1        0.0000
    142 H           4.5674    2.5049   -3.2426 H       1  UNL1        0.0000
    143 H           2.9152    5.7848   -2.1283 H       1  UNL1        0.0000
    144 H           2.9252    4.5425   -3.4310 H       1  UNL1        0.0000
    145 H           4.2403    5.7427   -3.3436 H       1  UNL1        0.0000
    146 H           6.0274    4.4457   -0.3561 H       1  UNL1        0.0000
    147 H           4.8206    5.7831   -0.3615 H       1  UNL1        0.0000
    148 H           6.0246    5.6425   -1.6904 H       1  UNL1        0.0000
    149 H           1.8663   -5.7004    0.9378 H       1  UNL1        0.0000
    150 H          -0.5201   -4.5957   -0.3225 H       1  UNL1        0.0000
    151 H          -5.9749   -2.5169   -0.9297 H       1  UNL1        0.0000
    152 H          -4.6196   -0.0526   -0.0300 H       1  UNL1        0.0000
    153 H          -3.0329    5.9972    1.4508 H       1  UNL1        0.0000
    154 H          -0.9531    3.8565    1.5569 H       1  UNL1        0.0000
    155 H           5.5388    2.3728    3.0590 H       1  UNL1        0.0000
    156 H           5.1490   -0.0420    1.6039 H       1  UNL1        0.0000
    157 H           8.6145    0.8442    1.6489 H       1  UNL1        0.0000
    158 H           7.3422   -0.0277    2.5311 H       1  UNL1        0.0000
    159 H           4.4510    1.7617    4.9400 H       1  UNL1        0.0000
    160 H           2.9155    0.8844    4.9132 H       1  UNL1        0.0000
    161 H          -4.3674    5.2447    3.6290 H       1  UNL1        0.0000
    162 H          -5.1134    4.6212    2.1169 H       1  UNL1        0.0000
    163 H           0.7175    4.9561    3.0563 H       1  UNL1        0.0000
    164 H           1.2508    5.0726    1.3429 H       1  UNL1        0.0000
    165 H          -6.4424   -3.4940    1.3519 H       1  UNL1        0.0000
    166 H          -4.9767   -4.2890    0.6858 H       1  UNL1        0.0000
    167 H          -5.6652    1.7718   -1.1114 H       1  UNL1        0.0000
    168 H          -7.2487    1.5254   -1.8835 H       1  UNL1        0.0000
    169 H           0.2817   -8.0728   -1.1779 H       1  UNL1        0.0000
    170 H           0.0404   -7.1809    0.3393 H       1  UNL1        0.0000
    171 H          -0.5548   -3.9377    3.0452 H       1  UNL1        0.0000
    172 H          -0.5327   -5.3484    1.9755 H       1  UNL1        0.0000
    173 H           7.0454   -2.2902    1.7940 H       1  UNL1        0.0000
    174 H           8.3923    0.6393   -1.0721 H       1  UNL1        0.0000
    175 H           7.2473   -4.0502    0.0780 H       1  UNL1        0.0000
    176 H           8.5861   -1.1368   -2.7793 H       1  UNL1        0.0000
    177 H           8.0221   -3.4816   -2.2079 H       1  UNL1        0.0000
    178 H           2.9946   -1.3634    3.2943 H       1  UNL1        0.0000
    179 H           6.3200    0.3539    5.4439 H       1  UNL1        0.0000
    180 H           4.1372   -3.5535    3.3041 H       1  UNL1        0.0000
    181 H           7.4411   -1.8441    5.4430 H       1  UNL1        0.0000
    182 H           6.3530   -3.8006    4.3786 H       1  UNL1        0.0000
    183 H           1.7135   -3.5490    4.4674 H       1  UNL1        0.0000
    184 H           0.3398   -7.3492    2.9554 H       1  UNL1        0.0000
    185 H           3.0584   -4.7219    6.1710 H       1  UNL1        0.0000
    186 H           1.6844   -8.5052    4.6723 H       1  UNL1        0.0000
    187 H           3.0479   -7.1993    6.2791 H       1  UNL1        0.0000
    188 H          -2.2700   -6.9983    0.9022 H       1  UNL1        0.0000
    189 H          -1.1751   -6.9539   -3.2712 H       1  UNL1        0.0000
    190 H          -4.6475   -6.8067    0.2718 H       1  UNL1        0.0000
    191 H          -3.5620   -6.7716   -3.8830 H       1  UNL1        0.0000
    192 H          -5.2998   -6.6855   -2.1172 H       1  UNL1        0.0000
    193 H          -7.6621   -0.6153    0.8198 H       1  UNL1        0.0000
    194 H          -7.1643    3.6005    0.0005 H       1  UNL1        0.0000
    195 H          -8.8195   -0.0590    2.9124 H       1  UNL1        0.0000
    196 H          -8.3113    4.1288    2.1192 H       1  UNL1        0.0000
    197 H          -9.1422    2.3057    3.5779 H       1  UNL1        0.0000
    198 H          -6.2672   -2.3639    3.6564 H       1  UNL1        0.0000
    199 H          -3.2204   -5.0163    2.1423 H       1  UNL1        0.0000
    200 H          -5.3677   -2.6520    5.9389 H       1  UNL1        0.0000
    201 H          -2.3501   -5.3107    4.4327 H       1  UNL1        0.0000
    202 H          -3.4112   -4.1232    6.3321 H       1  UNL1        0.0000
    203 H           0.2862    7.3201    4.2425 H       1  UNL1        0.0000
    204 H           2.8339    6.7394    0.8079 H       1  UNL1        0.0000
    205 H           1.5192    9.3903    4.7915 H       1  UNL1        0.0000
    206 H           4.0578    8.8037    1.3771 H       1  UNL1        0.0000
    207 H           3.4056   10.1341    3.3651 H       1  UNL1        0.0000
    208 H          -5.1545    4.0930    5.5628 H       1  UNL1        0.0000
    209 H          -4.7396    1.8971    1.8705 H       1  UNL1        0.0000
    210 H          -5.9286    2.0350    6.6847 H       1  UNL1        0.0000
    211 H          -5.5149   -0.1438    3.0085 H       1  UNL1        0.0000
    212 H          -6.1060   -0.0882    5.4161 H       1  UNL1        0.0000
    213 O          -3.2887   -3.7056   -1.1363 O.2     1  UNL1        0.0000
    214 O          -3.8357    0.5399   -2.6966 O.2     1  UNL1        0.0000
    215 O           3.7090   -3.6730    0.6233 O.2     1  UNL1        0.0000
    216 O           0.4042   -3.3366   -2.5144 O.2     1  UNL1        0.0000
    217 O          -4.3873    3.9290   -0.2080 O.2     1  UNL1        0.0000
    218 O           0.0220    4.9003   -0.9418 O.2     1  UNL1        0.0000
    219 O           3.7784    4.1873    1.9451 O.2     1  UNL1        0.0000
    220 O           4.4847    0.6797   -0.9082 O.2     1  UNL1        0.0000
    221 O          -4.8986   -2.2194    0.8845 O.3     1  UNL1        0.0000
    222 O          -6.3792   -0.1956   -1.2367 O.3     1  UNL1        0.0000
    223 O           3.6018    1.4141    3.0727 O.3     1  UNL1        0.0000
    224 O          -3.1069    4.1318    2.4663 O.3     1  UNL1        0.0000
    225 O          -0.5801    5.9407    1.8002 O.3     1  UNL1        0.0000
    226 O           6.7214    1.3724    1.1286 O.3     1  UNL1        0.0000
    227 O           0.6662   -6.0810   -1.3089 O.3     1  UNL1        0.0000
    228 O           0.9606   -3.9185    1.6850 O.3     1  UNL1        0.0000
    229 Rh          0.1980    0.6139   -0.9582 Rh      1  UNL1        0.0000
    230 Rh          0.7941    1.0252   -3.3645 Rh      1  UNL1        0.0000
@<TRIPOS>BOND
     1     1    40    1
     2     1    11    1
     3     2    25    1
     4     2     5    1
     5     3    30    1
     6     3     7    1
     7     4    35    1
     8     4     9    1
     9     5   229    1
    10     6   230    1
    11     6     2    1
    12     7   229    1
    13     8   230    1
    14     8     3    1
    15    10     4    1
    16    12     1    1
    17    13    17   am
    18    13    18   am
    19    14    19   am
    20    14    20   am
    21    15    22   am
    22    16    23   am
    23    17    50    1
    24    18    49    1
    25    19    48    1
    26    20   213    2
    27    20    47    1
    28    21    15   am
    29    21    46    1
    30    22    45    1
    31    22   215    2
    32    23   219    2
    33    23    51    1
    34    24    16   am
    35    24    52    1
    36    25   109    1
    37    25    13    1
    38    26    27    1
    39    26    25    1
    40    27   112    1
    41    27   111    1
    42    28    26    1
    43    28   115    1
    44    29   118    1
    45    29    26    1
    46    30   119    1
    47    30    14    1
    48    31    30    1
    49    32    31    1
    50    32   120    1
    51    32   122    1
    52    33   123    1
    53    33    31    1
    54    34   126    1
    55    34   127    1
    56    34    31    1
    57    35    15    1
    58    35   129    1
    59    36    37    1
    60    36    35    1
    61    37   130    1
    62    37   131    1
    63    38   133    1
    64    38    36    1
    65    39    36    1
    66    39   136    1
    67    40   139    1
    68    40    16    1
    69    41    44    1
    70    41    40    1
    71    42   140    1
    72    42    41    1
    73    43   143    1
    74    43    41    1
    75    44   147    1
    76    44   146    1
    77    45   149    1
    78    45   228    1
    79    46   150    1
    80    46    45    1
    81    47   151    1
    82    47   221    1
    83    48    47    1
    84    48   152    1
    85    49   153    1
    86    49   224    1
    87    50    49    1
    88    50   154    1
    89    50   225    1
    90    51   155    1
    91    51   223    1
    92    52   156    1
    93    52    51    1
    94    53   157    1
    95    53   158    1
    96    54    67    1
    97    54   160    1
    98    54   159    1
    99    55   161    1
   100    55   103    1
   101    56    97    1
   102    56   163    1
   103    57   165    1
   104    57    91    1
   105    58    85    1
   106    59   170    1
   107    60   171    1
   108    60    73    1
   109    61    62   ar
   110    61    53    1
   111    62   173    1
   112    63    61   ar
   113    64   175    1
   114    64    62   ar
   115    65    66   ar
   116    65    63   ar
   117    66    64   ar
   118    67    69   ar
   119    68    70   ar
   120    68    67   ar
   121    69    71   ar
   122    69   179    1
   123    70    72   ar
   124    71   181    1
   125    72    71   ar
   126    73    75   ar
   127    73    74   ar
   128    74    76   ar
   129    75    77   ar
   130    76    78   ar
   131    76   185    1
   132    77   186    1
   133    77    78   ar
   134    78   187    1
   135    79    59    1
   136    79    80   ar
   137    80   188    1
   138    81    79   ar
   139    82    80   ar
   140    82   190    1
   141    83    81   ar
   142    83    84   ar
   143    84    82   ar
   144    85    87   ar
   145    85    86   ar
   146    86    88   ar
   147    87    89   ar
   148    88    90   ar
   149    88   195    1
   150    89   196    1
   151    89    90   ar
   152    90   197    1
   153    91    93   ar
   154    91    92   ar
   155    92    94   ar
   156    93    95   ar
   157    94    96   ar
   158    94   200    1
   159    95   201    1
   160    95    96   ar
   161    96   202    1
   162    97    98   ar
   163    98   100   ar
   164    98   203    1
   165    99   101   ar
   166    99    97   ar
   167   100   205    1
   168   101   102   ar
   169   102   207    1
   170   102   100   ar
   171   103   104   ar
   172   104   208    1
   173   104   106   ar
   174   105   107   ar
   175   105   103   ar
   176   106   210    1
   177   107   108   ar
   178   108   212    1
   179   108   106   ar
   180   110    27    1
   181   113    28    1
   182   114    28    1
   183   116    29    1
   184   117    29    1
   185   121    32    1
   186   124    33    1
   187   125    33    1
   188   128    34    1
   189   132    37    1
   190   134    38    1
   191   135    38    1
   192   137    39    1
   193   138    39    1
   194   141    42    1
   195   142    42    1
   196   144    43    1
   197   145    43    1
   198   148    44    1
   199   162    55    1
   200   164    56    1
   201   166    57    1
   202   167    58    1
   203   168    58    1
   204   169    59    1
   205   172    60    1
   206   174    63    1
   207   176    65    1
   208   177    66    1
   209   178    68    1
   210   180    70    1
   211   182    72    1
   212   183    74    1
   213   184    75    1
   214   189    81    1
   215   191    83    1
   216   192    84    1
   217   193    86    1
   218   194    87    1
   219   198    92    1
   220   199    93    1
   221   204    99    1
   222   206   101    1
   223   209   105    1
   224   211   107    1
   225   214    19    2
   226   216    21    2
   227   217    18    2
   228   218    17    2
   229   220    24    2
   230   221    57    1
   231   222    58    1
   232   222    48    1
   233   223    54    1
   234   224    55    1
   235   225    56    1
   236   226    52    1
   237   226    53    1
   238   227    59    1
   239   227    46    1
   240   228    60    1
   241   229     9    1
   242   229    11    1
   243   230    10    1
   244   230    12    1
   245   230   229    1
