@<TRIPOS>MOLECULE
RhRh_ACH4_8_sp
 138 153 0 0 0
SMALL
GASTEIGER

@<TRIPOS>ATOM
      1 Rh          0.1103    0.3072   -1.2874 Rh      1  UNL1        0.0000
      2 Rh         -0.3358    0.1124    1.0518 Rh      1  UNL1        0.0000
      3 C           1.6651   -1.7230    0.0402 C.3     1  UNL1        0.0000
      4 C           1.7718    1.9811    0.4174 C.3     1  UNL1        0.0000
      5 C          -1.8406    2.1838   -0.2686 C.3     1  UNL1        0.0000
      6 C          -1.9814   -1.5675   -0.6377 C.3     1  UNL1        0.0000
      7 O          -1.3810   -1.0607   -1.6353 O.3     1  UNL1        0.0000
      8 O          -1.7823   -1.2795    0.5816 O.3     1  UNL1        0.0000
      9 O          -1.2266    1.8693   -1.3332 O.3     1  UNL1        0.0000
     10 O          -1.7009    1.6340    0.8661 O.3     1  UNL1        0.0000
     11 O           1.1036    1.5245    1.3959 O.3     1  UNL1        0.0000
     12 O           1.6084    1.6662   -0.8015 O.3     1  UNL1        0.0000
     13 O           1.1131   -1.3541    1.1199 O.3     1  UNL1        0.0000
     14 O           1.3864   -1.2931   -1.1233 O.3     1  UNL1        0.0000
     15 N          -3.7794   -2.9555    0.2729 N.am    1  UNL1        0.0000
     16 N          -4.1217    3.0501   -0.6927 N.am    1  UNL1        0.0000
     17 N           4.1162    2.2532    1.0524 N.am    1  UNL1        0.0000
     18 N           3.7229   -2.5717   -0.9038 N.am    1  UNL1        0.0000
     19 C          -2.9850   -2.6921   -0.9547 C.3     1  UNL1        0.0000
     20 C          -2.1696   -3.9495   -1.3759 C.3     1  UNL1        0.0000
     21 C          -3.0898   -5.1082   -1.7688 C.3     1  UNL1        0.0000
     22 C          -4.0206   -4.7175   -2.9222 C.3     1  UNL1        0.0000
     23 C          -4.7970   -3.4354   -2.5981 C.3     1  UNL1        0.0000
     24 C          -3.8652   -2.2993   -2.1651 C.3     1  UNL1        0.0000
     25 C          -5.0084   -2.3355    0.6021 C.2     1  UNL1        0.0000
     26 C          -5.2483   -2.5968    2.0457 C.ar    1  UNL1        0.0000
     27 C          -6.3143   -2.2239    2.8504 C.ar    1  UNL1        0.0000
     28 C          -6.2662   -2.6125    4.1940 C.ar    1  UNL1        0.0000
     29 C          -5.1868   -3.3533    4.6954 C.ar    1  UNL1        0.0000
     30 C          -4.1213   -3.7287    3.8691 C.ar    1  UNL1        0.0000
     31 C          -4.1793   -3.3299    2.5422 C.ar    1  UNL1        0.0000
     32 C          -3.2189   -3.5606    1.4329 C.2     1  UNL1        0.0000
     33 C          -2.7409    3.4520   -0.3296 C.3     1  UNL1        0.0000
     34 C          -2.1848    4.4130   -1.4054 C.3     1  UNL1        0.0000
     35 C          -0.8055    4.9613   -1.0190 C.3     1  UNL1        0.0000
     36 C          -0.8355    5.6428    0.3541 C.3     1  UNL1        0.0000
     37 C          -1.3744    4.6936    1.4312 C.3     1  UNL1        0.0000
     38 C          -2.7545    4.1389    1.0545 C.3     1  UNL1        0.0000
     39 C          -4.5746    1.7287   -0.8902 C.2     1  UNL1        0.0000
     40 C          -6.0224    1.8268   -1.2231 C.ar    1  UNL1        0.0000
     41 C          -6.9474    0.8322   -1.5050 C.ar    1  UNL1        0.0000
     42 C          -8.2556    1.2441   -1.7917 C.ar    1  UNL1        0.0000
     43 C          -8.6112    2.5983   -1.7899 C.ar    1  UNL1        0.0000
     44 C          -7.6684    3.5913   -1.4959 C.ar    1  UNL1        0.0000
     45 C          -6.3769    3.1744   -1.2159 C.ar    1  UNL1        0.0000
     46 C          -5.1750    3.9770   -0.8648 C.2     1  UNL1        0.0000
     47 C           2.8691    3.0240    0.7630 C.3     1  UNL1        0.0000
     48 C           3.0345    4.0084   -0.4147 C.3     1  UNL1        0.0000
     49 C           4.0085    5.1537   -0.1140 C.3     1  UNL1        0.0000
     50 C           3.6355    5.9070    1.1669 C.3     1  UNL1        0.0000
     51 C           3.4670    4.9357    2.3395 C.3     1  UNL1        0.0000
     52 C           2.4513    3.8384    2.0102 C.3     1  UNL1        0.0000
     53 C           4.2552    1.4285    2.2073 C.2     1  UNL1        0.0000
     54 C           5.5412    0.7016    2.0555 C.ar    1  UNL1        0.0000
     55 C           6.1385   -0.2278    2.8926 C.ar    1  UNL1        0.0000
     56 C           7.3489   -0.7874    2.4660 C.ar    1  UNL1        0.0000
     57 C           7.9271   -0.4121    1.2465 C.ar    1  UNL1        0.0000
     58 C           7.3116    0.5295    0.4127 C.ar    1  UNL1        0.0000
     59 C           6.1086    1.0674    0.8428 C.ar    1  UNL1        0.0000
     60 C           5.1876    2.0182    0.1611 C.2     1  UNL1        0.0000
     61 C           2.6923   -2.8745    0.1134 C.3     1  UNL1        0.0000
     62 C           3.3871   -2.9963    1.4901 C.3     1  UNL1        0.0000
     63 C           2.4884   -3.5126    2.6229 C.3     1  UNL1        0.0000
     64 C           1.7204   -4.7754    2.2163 C.3     1  UNL1        0.0000
     65 C           0.9570   -4.5571    0.9057 C.3     1  UNL1        0.0000
     66 C           1.9150   -4.1718   -0.2256 C.3     1  UNL1        0.0000
     67 C           4.3919   -3.4435   -1.7897 C.2     1  UNL1        0.0000
     68 C           5.3151   -2.5770   -2.5824 C.ar    1  UNL1        0.0000
     69 C           6.1753   -2.9168   -3.6137 C.ar    1  UNL1        0.0000
     70 C           6.9239   -1.8826   -4.1904 C.ar    1  UNL1        0.0000
     71 C           6.8008   -0.5627   -3.7393 C.ar    1  UNL1        0.0000
     72 C           5.9325   -0.2280   -2.6916 C.ar    1  UNL1        0.0000
     73 C           5.2021   -1.2644   -2.1267 C.ar    1  UNL1        0.0000
     74 C           4.2212   -1.2634   -1.0143 C.2     1  UNL1        0.0000
     75 H          -1.5697   -3.6400   -2.2377 H       1  UNL1        0.0000
     76 H          -1.4891   -4.2467   -0.5826 H       1  UNL1        0.0000
     77 H          -2.4768   -5.9732   -2.0453 H       1  UNL1        0.0000
     78 H          -3.6818   -5.4123   -0.8966 H       1  UNL1        0.0000
     79 H          -4.7125   -5.5363   -3.1505 H       1  UNL1        0.0000
     80 H          -3.4164   -4.5539   -3.8251 H       1  UNL1        0.0000
     81 H          -5.3701   -3.1078   -3.4731 H       1  UNL1        0.0000
     82 H          -5.5290   -3.6311   -1.8076 H       1  UNL1        0.0000
     83 H          -4.4130   -1.3861   -1.9535 H       1  UNL1        0.0000
     84 H          -3.1593   -2.0746   -2.9694 H       1  UNL1        0.0000
     85 H          -7.0759   -2.3361    4.8619 H       1  UNL1        0.0000
     86 H          -5.1797   -3.6383    5.7426 H       1  UNL1        0.0000
     87 H          -3.2800   -4.3031    4.2412 H       1  UNL1        0.0000
     88 H          -2.1392    3.8850   -2.3600 H       1  UNL1        0.0000
     89 H          -2.8915    5.2398   -1.5017 H       1  UNL1        0.0000
     90 H          -0.0789    4.1414   -1.0152 H       1  UNL1        0.0000
     91 H          -0.4730    5.6664   -1.7887 H       1  UNL1        0.0000
     92 H          -1.4759    6.5335    0.3019 H       1  UNL1        0.0000
     93 H           0.1677    5.9927    0.6248 H       1  UNL1        0.0000
     94 H          -1.4480    5.2111    2.3940 H       1  UNL1        0.0000
     95 H          -0.6781    3.8609    1.5782 H       1  UNL1        0.0000
     96 H          -3.4765    4.9574    1.0029 H       1  UNL1        0.0000
     97 H          -3.1003    3.4211    1.8014 H       1  UNL1        0.0000
     98 H          -6.6667   -0.2129   -1.4756 H       1  UNL1        0.0000
     99 H          -9.0109    0.4976   -2.0165 H       1  UNL1        0.0000
    100 H          -9.6344    2.8809   -2.0166 H       1  UNL1        0.0000
    101 H           2.0356    4.4262   -0.5808 H       1  UNL1        0.0000
    102 H           3.3166    3.4798   -1.3204 H       1  UNL1        0.0000
    103 H           4.0183    5.8369   -0.9707 H       1  UNL1        0.0000
    104 H           5.0244    4.7563   -0.0296 H       1  UNL1        0.0000
    105 H           4.3928    6.6650    1.3977 H       1  UNL1        0.0000
    106 H           2.6894    6.4447    1.0117 H       1  UNL1        0.0000
    107 H           3.1395    5.4686    3.2389 H       1  UNL1        0.0000
    108 H           4.4347    4.4787    2.5838 H       1  UNL1        0.0000
    109 H           2.2891    3.1742    2.8540 H       1  UNL1        0.0000
    110 H           1.4879    4.2997    1.7700 H       1  UNL1        0.0000
    111 H           7.8485   -1.5243    3.0869 H       1  UNL1        0.0000
    112 H           8.8663   -0.8634    0.9424 H       1  UNL1        0.0000
    113 H           7.7457    0.8181   -0.5376 H       1  UNL1        0.0000
    114 H           3.8257   -2.0303    1.7531 H       1  UNL1        0.0000
    115 H           4.2142   -3.7010    1.3379 H       1  UNL1        0.0000
    116 H           1.7810   -2.7304    2.9053 H       1  UNL1        0.0000
    117 H           3.1164   -3.7134    3.4990 H       1  UNL1        0.0000
    118 H           2.4242   -5.6102    2.0877 H       1  UNL1        0.0000
    119 H           1.0252   -5.0645    3.0117 H       1  UNL1        0.0000
    120 H           0.4245   -5.4700    0.6195 H       1  UNL1        0.0000
    121 H           0.1903   -3.7923    1.0523 H       1  UNL1        0.0000
    122 H           2.6401   -4.9708   -0.3803 H       1  UNL1        0.0000
    123 H           1.3844   -4.0306   -1.1722 H       1  UNL1        0.0000
    124 H           6.2547   -3.9430   -3.9555 H       1  UNL1        0.0000
    125 H           7.6071   -2.1055   -5.0039 H       1  UNL1        0.0000
    126 H           7.3881    0.2174   -4.2134 H       1  UNL1        0.0000
    127 O          -2.1746   -4.1734    1.5069 O.2     1  UNL1        0.0000
    128 O          -5.7613   -1.7365   -0.1401 O.2     1  UNL1        0.0000
    129 O          -3.8889    0.7296   -0.8043 O.2     1  UNL1        0.0000
    130 O          -5.1010    5.1845   -0.7422 O.2     1  UNL1        0.0000
    131 O           3.4818    1.3375    3.1361 O.2     1  UNL1        0.0000
    132 O           5.3566    2.5037   -0.9420 O.2     1  UNL1        0.0000
    133 O           3.8859   -0.3451   -0.2893 O.2     1  UNL1        0.0000
    134 O           4.2678   -4.6479   -1.8812 O.2     1  UNL1        0.0000
    135 H          -7.1418   -1.6508    2.4468 H       1  UNL1        0.0000
    136 H          -7.9273    4.6444   -1.4849 H       1  UNL1        0.0000
    137 H           5.6743   -0.5085    3.8317 H       1  UNL1        0.0000
    138 H           5.8264    0.7925   -2.3383 H       1  UNL1        0.0000
@<TRIPOS>BOND
     1     1    14    1
     2     1    12    1
     3     1     2    1
     4     2    13    1
     5     2    11    1
     6     3    61    1
     7     3    13    1
     8     4    47    1
     9     4    11    1
    10     5    10    1
    11     6     8    1
    12     7     1    1
    13     7     6    1
    14     8     2    1
    15     9     1    1
    16     9     5    1
    17    10     2    1
    18    12     4    1
    19    14     3    1
    20    15    25   am
    21    15    32   am
    22    16    33    1
    23    17    53   am
    24    18    61    1
    25    19     6    1
    26    19    15    1
    27    20    19    1
    28    20    76    1
    29    21    20    1
    30    21    78    1
    31    22    23    1
    32    22    21    1
    33    23    24    1
    34    23    82    1
    35    24    83    1
    36    24    19    1
    37    25    26    1
    38    26    31   ar
    39    26    27   ar
    40    27    28   ar
    41    28    29   ar
    42    28    85    1
    43    29    86    1
    44    30    87    1
    45    30    29   ar
    46    31    30   ar
    47    32   127    2
    48    32    31    1
    49    33     5    1
    50    33    38    1
    51    34    35    1
    52    34    33    1
    53    35    90    1
    54    35    36    1
    55    36    93    1
    56    36    37    1
    57    37    95    1
    58    37    94    1
    59    38    37    1
    60    38    97    1
    61    39   129    2
    62    39    16   am
    63    40    45   ar
    64    40    39    1
    65    41    98    1
    66    41    40   ar
    67    42    43   ar
    68    42    41   ar
    69    43    44   ar
    70    44   136    1
    71    44    45   ar
    72    45    46    1
    73    46   130    2
    74    46    16   am
    75    47    17    1
    76    47    52    1
    77    48    49    1
    78    48    47    1
    79    49   104    1
    80    49    50    1
    81    50   105    1
    82    50    51    1
    83    51   108    1
    84    51   107    1
    85    52    51    1
    86    52   109    1
    87    53   131    2
    88    54    53    1
    89    54    55   ar
    90    55   137    1
    91    56    55   ar
    92    56   111    1
    93    57    56   ar
    94    58    59   ar
    95    58    57   ar
    96    59    54   ar
    97    60    59    1
    98    60    17   am
    99    61    62    1
   100    62   114    1
   101    62    63    1
   102    63   116    1
   103    63   117    1
   104    64    63    1
   105    64   119    1
   106    65   121    1
   107    65    64    1
   108    66    61    1
   109    66    65    1
   110    67    18   am
   111    68    73   ar
   112    68    67    1
   113    69    68   ar
   114    70    71   ar
   115    70    69   ar
   116    71    72   ar
   117    72   138    1
   118    72    73   ar
   119    73    74    1
   120    74    18   am
   121    74   133    2
   122    75    20    1
   123    77    21    1
   124    79    22    1
   125    80    22    1
   126    81    23    1
   127    84    24    1
   128    88    34    1
   129    89    34    1
   130    91    35    1
   131    92    36    1
   132    96    38    1
   133    99    42    1
   134   100    43    1
   135   101    48    1
   136   102    48    1
   137   103    49    1
   138   106    50    1
   139   110    52    1
   140   112    57    1
   141   113    58    1
   142   115    62    1
   143   118    64    1
   144   120    65    1
   145   122    66    1
   146   123    66    1
   147   124    69    1
   148   125    70    1
   149   126    71    1
   150   128    25    2
   151   132    60    2
   152   134    67    2
   153   135    27    1
