@<TRIPOS>MOLECULE
RhRh_ACyPropyl4_29
 102 117 0 0 0
SMALL
GASTEIGER

@<TRIPOS>ATOM
      1 Rh         -0.0005   -0.1422   -0.2817 Rh      1  UNL1        0.0000
      2 Rh         -0.0006   -1.0986   -2.4792 Rh      1  UNL1        0.0000
      3 C          -1.9255   -2.2758   -0.6908 C.3     1  UNL1        0.0000
      4 C          -2.0208    0.9118   -2.0024 C.3     1  UNL1        0.0000
      5 C           2.0200    0.9114   -2.0025 C.3     1  UNL1        0.0000
      6 C           1.9244   -2.2760   -0.6910 C.3     1  UNL1        0.0000
      7 O          -1.4726    1.1446   -0.8789 O.3     1  UNL1        0.0000
      8 O          -1.5358    0.2074   -2.9460 O.3     1  UNL1        0.0000
      9 O           1.4717    1.1446   -0.8791 O.3     1  UNL1        0.0000
     10 O           1.5348    0.2072   -2.9461 O.3     1  UNL1        0.0000
     11 O           1.4580   -2.4064   -1.8717 O.3     1  UNL1        0.0000
     12 O           1.5088   -1.4689    0.1927 O.3     1  UNL1        0.0000
     13 O          -1.4592   -2.4062   -1.8716 O.3     1  UNL1        0.0000
     14 O          -1.5098   -1.4687    0.1928 O.3     1  UNL1        0.0000
     15 N          -3.8807    2.2415   -1.1003 N.am    1  UNL1        0.0000
     16 N           3.8807    2.2400   -1.1002 N.am    1  UNL1        0.0000
     17 N           3.9221   -2.6978    0.7014 N.am    1  UNL1        0.0000
     18 N          -3.9230   -2.6976    0.7018 N.am    1  UNL1        0.0000
     19 C          -3.4075    1.4369   -2.1810 C.3     1  UNL1        0.0000
     20 C          -3.9724    1.6575   -3.5662 C.3     1  UNL1        0.0000
     21 C          -4.4008    0.4522   -2.8017 C.3     1  UNL1        0.0000
     22 C          -4.1090    1.6966    0.1789 C.2     1  UNL1        0.0000
     23 C          -4.4341    2.8495    1.0586 C.ar    1  UNL1        0.0000
     24 C          -4.7960    2.8720    2.3968 C.ar    1  UNL1        0.0000
     25 C          -5.0446    4.1253    2.9700 C.ar    1  UNL1        0.0000
     26 C          -4.9313    5.3011    2.2170 C.ar    1  UNL1        0.0000
     27 C          -4.5687    5.2639    0.8645 C.ar    1  UNL1        0.0000
     28 C          -4.3252    4.0194    0.3048 C.ar    1  UNL1        0.0000
     29 C          -3.9284    3.6517   -1.0878 C.2     1  UNL1        0.0000
     30 C           3.4069    1.4358   -2.1810 C.3     1  UNL1        0.0000
     31 C           4.3997    0.4506   -2.8018 C.3     1  UNL1        0.0000
     32 C           3.9720    1.6562   -3.5662 C.3     1  UNL1        0.0000
     33 C           4.1085    1.6948    0.1790 C.2     1  UNL1        0.0000
     34 C           4.4356    2.8473    1.0585 C.ar    1  UNL1        0.0000
     35 C           4.7977    2.8694    2.3967 C.ar    1  UNL1        0.0000
     36 C           5.0485    4.1223    2.9697 C.ar    1  UNL1        0.0000
     37 C           4.9368    5.2981    2.2166 C.ar    1  UNL1        0.0000
     38 C           4.5739    5.2615    0.8642 C.ar    1  UNL1        0.0000
     39 C           4.3283    4.0173    0.3046 C.ar    1  UNL1        0.0000
     40 C           3.9307    3.6500   -1.0879 C.2     1  UNL1        0.0000
     41 C           3.0442   -3.2000   -0.3047 C.3     1  UNL1        0.0000
     42 C           3.6285   -4.1289   -1.3423 C.3     1  UNL1        0.0000
     43 C           2.7183   -4.6885   -0.2984 C.3     1  UNL1        0.0000
     44 C           3.6105   -2.6706    2.0797 C.2     1  UNL1        0.0000
     45 C           4.7091   -1.8872    2.7150 C.ar    1  UNL1        0.0000
     46 C           4.8905   -1.5232    4.0404 C.ar    1  UNL1        0.0000
     47 C           6.0144   -0.7464    4.3478 C.ar    1  UNL1        0.0000
     48 C           6.9204   -0.3608    3.3504 C.ar    1  UNL1        0.0000
     49 C           6.7283   -0.7379    2.0161 C.ar    1  UNL1        0.0000
     50 C           5.6101   -1.5014    1.7237 C.ar    1  UNL1        0.0000
     51 C           5.1075   -1.9918    0.4088 C.2     1  UNL1        0.0000
     52 C          -3.0452   -3.1998   -0.3044 C.3     1  UNL1        0.0000
     53 C          -2.7194   -4.6884   -0.2984 C.3     1  UNL1        0.0000
     54 C          -3.6298   -4.1286   -1.3420 C.3     1  UNL1        0.0000
     55 C          -3.6111   -2.6705    2.0800 C.2     1  UNL1        0.0000
     56 C          -4.7094   -1.8868    2.7155 C.ar    1  UNL1        0.0000
     57 C          -4.8906   -1.5230    4.0411 C.ar    1  UNL1        0.0000
     58 C          -6.0143   -0.7459    4.3487 C.ar    1  UNL1        0.0000
     59 C          -6.9203   -0.3600    3.3514 C.ar    1  UNL1        0.0000
     60 C          -6.7284   -0.7370    2.0170 C.ar    1  UNL1        0.0000
     61 C          -5.6104   -1.5007    1.7244 C.ar    1  UNL1        0.0000
     62 C          -5.1082   -1.9912    0.4094 C.2     1  UNL1        0.0000
     63 H          -4.6519    2.4945   -3.6668 H       1  UNL1        0.0000
     64 H          -3.2677    1.5264   -4.3789 H       1  UNL1        0.0000
     65 H          -3.9949   -0.5141   -3.0732 H       1  UNL1        0.0000
     66 H          -5.3787    0.4283   -2.3366 H       1  UNL1        0.0000
     67 H          -4.4779    6.1676    0.2717 H       1  UNL1        0.0000
     68 H           5.3776    0.4260   -2.3367 H       1  UNL1        0.0000
     69 H           3.9933   -0.5154   -3.0733 H       1  UNL1        0.0000
     70 H           3.2672    1.5255   -4.3788 H       1  UNL1        0.0000
     71 H           4.6520    2.4928   -3.6668 H       1  UNL1        0.0000
     72 H           4.8832    1.9488    2.9645 H       1  UNL1        0.0000
     73 H           5.1354    6.2537    2.6916 H       1  UNL1        0.0000
     74 H           4.4844    6.1652    0.2713 H       1  UNL1        0.0000
     75 H           4.6928   -4.3097   -1.2618 H       1  UNL1        0.0000
     76 H           3.2478   -4.0088   -2.3486 H       1  UNL1        0.0000
     77 H           1.7067   -4.9574   -0.5811 H       1  UNL1        0.0000
     78 H           3.1344   -5.2553    0.5259 H       1  UNL1        0.0000
     79 H           7.4141   -0.4368    1.2317 H       1  UNL1        0.0000
     80 H          -3.1355   -5.2551    0.5260 H       1  UNL1        0.0000
     81 H          -1.7080   -4.9573   -0.5812 H       1  UNL1        0.0000
     82 H          -3.2493   -4.0085   -2.3484 H       1  UNL1        0.0000
     83 H          -4.6941   -4.3094   -1.2613 H       1  UNL1        0.0000
     84 H          -4.1790   -1.8269    4.8012 H       1  UNL1        0.0000
     85 H          -7.7823    0.2426    3.6203 H       1  UNL1        0.0000
     86 H          -7.4143   -0.4358    1.2328 H       1  UNL1        0.0000
     87 O          -2.6581   -3.2080    2.5982 O.2     1  UNL1        0.0000
     88 O          -5.5980   -1.8528   -0.6923 O.2     1  UNL1        0.0000
     89 O           2.6574   -3.2078    2.5979 O.2     1  UNL1        0.0000
     90 O           5.5972   -1.8535   -0.6930 O.2     1  UNL1        0.0000
     91 O           4.0343    0.5195    0.4625 O.2     1  UNL1        0.0000
     92 O           3.7064    4.3779   -2.0311 O.2     1  UNL1        0.0000
     93 O          -4.0364    0.5211    0.4624 O.2     1  UNL1        0.0000
     94 O          -3.7031    4.3792   -2.0310 O.2     1  UNL1        0.0000
     95 H          -4.8827    1.9516    2.9646 H       1  UNL1        0.0000
     96 H          -5.3288    4.1900    4.0156 H       1  UNL1        0.0000
     97 H          -5.1283    6.2569    2.6921 H       1  UNL1        0.0000
     98 H           5.3330    4.1866    4.0152 H       1  UNL1        0.0000
     99 H           4.1790   -1.8269    4.8007 H       1  UNL1        0.0000
    100 H           6.1896   -0.4382    5.3739 H       1  UNL1        0.0000
    101 H           7.7825    0.2418    3.6191 H       1  UNL1        0.0000
    102 H          -6.1893   -0.4379    5.3748 H       1  UNL1        0.0000
@<TRIPOS>BOND
     1     1    12    1
     2     1    14    1
     3     2    11    1
     4     2    13    1
     5     2     1    1
     6     3    52    1
     7     3    14    1
     8     4     7    1
     9     5     9    1
    10     6    41    1
    11     6    12    1
    12     7     1    1
    13     8     2    1
    14     8     4    1
    15     9     1    1
    16    10     2    1
    17    10     5    1
    18    11     6    1
    19    13     3    1
    20    15    29   am
    21    15    22   am
    22    16    40   am
    23    16    33   am
    24    17    44   am
    25    18    55   am
    26    19     4    1
    27    19    15    1
    28    20    21    1
    29    20    19    1
    30    21    66    1
    31    21    19    1
    32    22    93    2
    33    22    23    1
    34    23    24   ar
    35    24    95    1
    36    24    25   ar
    37    25    96    1
    38    26    97    1
    39    26    25   ar
    40    27    26   ar
    41    28    27   ar
    42    28    23   ar
    43    29    28    1
    44    30     5    1
    45    30    16    1
    46    31    68    1
    47    31    30    1
    48    32    31    1
    49    32    30    1
    50    33    91    2
    51    33    34    1
    52    34    35   ar
    53    35    72    1
    54    35    36   ar
    55    36    98    1
    56    37    73    1
    57    37    36   ar
    58    38    37   ar
    59    39    38   ar
    60    39    34   ar
    61    40    39    1
    62    41    43    1
    63    41    17    1
    64    42    75    1
    65    42    41    1
    66    42    43    1
    67    43    78    1
    68    44    89    2
    69    44    45    1
    70    45    46   ar
    71    46    47   ar
    72    46    99    1
    73    47   100    1
    74    48   101    1
    75    48    47   ar
    76    49    48   ar
    77    50    49   ar
    78    50    45   ar
    79    51    17   am
    80    51    50    1
    81    52    53    1
    82    52    18    1
    83    53    80    1
    84    54    83    1
    85    54    52    1
    86    54    53    1
    87    55    87    2
    88    55    56    1
    89    56    57   ar
    90    57    58   ar
    91    57    84    1
    92    58   102    1
    93    59    85    1
    94    59    58   ar
    95    60    59   ar
    96    61    60   ar
    97    61    56   ar
    98    62    18   am
    99    62    61    1
   100    63    20    1
   101    64    20    1
   102    65    21    1
   103    67    27    1
   104    69    31    1
   105    70    32    1
   106    71    32    1
   107    74    38    1
   108    76    42    1
   109    77    43    1
   110    79    49    1
   111    81    53    1
   112    82    54    1
   113    86    60    1
   114    88    62    2
   115    90    51    2
   116    92    40    2
   117    94    29    2
