@<TRIPOS>MOLECULE
RhRh_ACyPropyl4_39
 102 117 0 0 0
SMALL
GASTEIGER

@<TRIPOS>ATOM
      1 Rh         -0.5497   -0.4470    1.0730 Rh      1  UNL1        0.0000
      2 Rh          0.8122   -0.4341   -0.8931 Rh      1  UNL1        0.0000
      3 C          -1.6668   -1.8826   -1.1611 C.3     1  UNL1        0.0000
      4 C          -1.1390    1.6862   -0.7558 C.3     1  UNL1        0.0000
      5 C           1.8713    1.1132    1.2851 C.3     1  UNL1        0.0000
      6 C           1.4797   -2.4691    1.0365 C.3     1  UNL1        0.0000
      7 O          -1.3921    1.2881    0.4280 O.3     1  UNL1        0.0000
      8 O          -0.2678    1.2019   -1.5427 O.3     1  UNL1        0.0000
      9 O           0.9429    0.6380    2.0115 O.3     1  UNL1        0.0000
     10 O           2.0987    0.8260    0.0657 O.3     1  UNL1        0.0000
     11 O           1.8472   -2.0062   -0.0918 O.3     1  UNL1        0.0000
     12 O           0.4034   -2.1893    1.6497 O.3     1  UNL1        0.0000
     13 O          -0.5634   -1.6948   -1.7667 O.3     1  UNL1        0.0000
     14 O          -1.9746   -1.4480   -0.0074 O.3     1  UNL1        0.0000
     15 N          -3.1803    2.9779   -0.4837 N.am    1  UNL1        0.0000
     16 N           3.5896    2.8073    0.9256 N.am    1  UNL1        0.0000
     17 N           3.7723   -3.2660    1.1889 N.am    1  UNL1        0.0000
     18 N          -4.0324   -2.5213   -1.4264 N.am    1  UNL1        0.0000
     19 C          -1.9731    2.8307   -1.2388 C.3     1  UNL1        0.0000
     20 C          -1.2665    4.0614   -1.7773 C.3     1  UNL1        0.0000
     21 C          -1.9821    3.1489   -2.7192 C.3     1  UNL1        0.0000
     22 C          -4.0912    1.8988   -0.4245 C.2     1  UNL1        0.0000
     23 C          -4.9962    2.1893    0.7176 C.ar    1  UNL1        0.0000
     24 C          -6.0780    1.4715    1.2040 C.ar    1  UNL1        0.0000
     25 C          -6.7317    1.9829    2.3310 C.ar    1  UNL1        0.0000
     26 C          -6.3050    3.1702    2.9395 C.ar    1  UNL1        0.0000
     27 C          -5.2066    3.8830    2.4429 C.ar    1  UNL1        0.0000
     28 C          -4.5647    3.3686    1.3268 C.ar    1  UNL1        0.0000
     29 C          -3.3570    3.8641    0.6036 C.2     1  UNL1        0.0000
     30 C           2.7803    2.1331    1.8941 C.3     1  UNL1        0.0000
     31 C           2.2772    2.9157    3.0945 C.3     1  UNL1        0.0000
     32 C           3.3329    1.8783    3.2815 C.3     1  UNL1        0.0000
     33 C           2.9821    3.5759   -0.0951 C.2     1  UNL1        0.0000
     34 C           4.0488    3.8274   -1.1015 C.ar    1  UNL1        0.0000
     35 C           4.0122    4.5523   -2.2825 C.ar    1  UNL1        0.0000
     36 C           5.1842    4.5954   -3.0475 C.ar    1  UNL1        0.0000
     37 C           6.3451    3.9322   -2.6301 C.ar    1  UNL1        0.0000
     38 C           6.3715    3.2050   -1.4339 C.ar    1  UNL1        0.0000
     39 C           5.2055    3.1667   -0.6855 C.ar    1  UNL1        0.0000
     40 C           4.9176    2.4717    0.6016 C.2     1  UNL1        0.0000
     41 C           2.4439   -3.4094    1.6951 C.3     1  UNL1        0.0000
     42 C           1.9621   -4.7709    2.1583 C.3     1  UNL1        0.0000
     43 C           2.2701   -3.7144    3.1681 C.3     1  UNL1        0.0000
     44 C           4.4378   -2.0268    1.3464 C.2     1  UNL1        0.0000
     45 C           5.5925   -2.0665    0.4106 C.ar    1  UNL1        0.0000
     46 C           6.5886   -1.1283    0.1807 C.ar    1  UNL1        0.0000
     47 C           7.5420   -1.4401   -0.7968 C.ar    1  UNL1        0.0000
     48 C           7.4883   -2.6447   -1.5093 C.ar    1  UNL1        0.0000
     49 C           6.4736   -3.5800   -1.2718 C.ar    1  UNL1        0.0000
     50 C           5.5327   -3.2661   -0.3035 C.ar    1  UNL1        0.0000
     51 C           4.3299   -4.0283    0.1404 C.2     1  UNL1        0.0000
     52 C          -2.6858   -2.7455   -1.8443 C.3     1  UNL1        0.0000
     53 C          -2.2497   -4.1737   -2.1573 C.3     1  UNL1        0.0000
     54 C          -2.4483   -3.1933   -3.2661 C.3     1  UNL1        0.0000
     55 C          -4.5483   -2.9465   -0.1846 C.2     1  UNL1        0.0000
     56 C          -5.9011   -2.3222   -0.0847 C.ar    1  UNL1        0.0000
     57 C          -6.8515   -2.4118    0.9216 C.ar    1  UNL1        0.0000
     58 C          -8.0587   -1.7275    0.7319 C.ar    1  UNL1        0.0000
     59 C          -8.2933   -0.9859   -0.4342 C.ar    1  UNL1        0.0000
     60 C          -7.3261   -0.9023   -1.4434 C.ar    1  UNL1        0.0000
     61 C          -6.1333   -1.5792   -1.2420 C.ar    1  UNL1        0.0000
     62 C          -4.9345   -1.6824   -2.1229 C.2     1  UNL1        0.0000
     63 H          -1.7167    5.0087   -1.5101 H       1  UNL1        0.0000
     64 H          -0.1838    4.0330   -1.7240 H       1  UNL1        0.0000
     65 H          -1.4029    2.4827   -3.3466 H       1  UNL1        0.0000
     66 H          -2.9392    3.4648   -3.1182 H       1  UNL1        0.0000
     67 H          -4.8581    4.7970    2.9113 H       1  UNL1        0.0000
     68 H           2.5653    3.9605    3.1195 H       1  UNL1        0.0000
     69 H           1.2639    2.6946    3.4062 H       1  UNL1        0.0000
     70 H           3.0626    0.9208    3.7093 H       1  UNL1        0.0000
     71 H           4.3597    2.1820    3.4388 H       1  UNL1        0.0000
     72 H           3.1062    5.0595   -2.5958 H       1  UNL1        0.0000
     73 H           7.2367    3.9827   -3.2471 H       1  UNL1        0.0000
     74 H           7.2629    2.6849   -1.1003 H       1  UNL1        0.0000
     75 H           2.6535   -5.5904    2.0091 H       1  UNL1        0.0000
     76 H           0.9218   -4.9966    1.9521 H       1  UNL1        0.0000
     77 H           1.4469   -3.2106    3.6590 H       1  UNL1        0.0000
     78 H           3.1896   -3.7933    3.7363 H       1  UNL1        0.0000
     79 H           6.4130   -4.5120   -1.8232 H       1  UNL1        0.0000
     80 H          -2.9975   -4.9385   -1.9836 H       1  UNL1        0.0000
     81 H          -1.2377   -4.4383   -1.8721 H       1  UNL1        0.0000
     82 H          -1.5727   -2.7746   -3.7462 H       1  UNL1        0.0000
     83 H          -3.3314   -3.2715   -3.8868 H       1  UNL1        0.0000
     84 H          -6.6576   -2.9931    1.8165 H       1  UNL1        0.0000
     85 H          -9.2386   -0.4658   -0.5524 H       1  UNL1        0.0000
     86 H          -7.4890   -0.3271   -2.3482 H       1  UNL1        0.0000
     87 O          -3.9974   -3.6906    0.5968 O.2     1  UNL1        0.0000
     88 O          -4.7591   -1.2057   -3.2212 O.2     1  UNL1        0.0000
     89 O           4.0737   -1.1431    2.0940 O.2     1  UNL1        0.0000
     90 O           3.8977   -5.0801   -0.2812 O.2     1  UNL1        0.0000
     91 O           1.8196    3.9213   -0.1073 O.2     1  UNL1        0.0000
     92 O           5.6621    1.7752    1.2618 O.2     1  UNL1        0.0000
     93 O          -4.0723    0.9382   -1.1652 O.2     1  UNL1        0.0000
     94 O          -2.6615    4.8213    0.8663 O.2     1  UNL1        0.0000
     95 H          -6.3961    0.5516    0.7313 H       1  UNL1        0.0000
     96 H          -7.5810    1.4471    2.7432 H       1  UNL1        0.0000
     97 H          -6.8311    3.5385    3.8146 H       1  UNL1        0.0000
     98 H           5.1951    5.1492   -3.9808 H       1  UNL1        0.0000
     99 H           6.6049   -0.1896    0.7233 H       1  UNL1        0.0000
    100 H           8.3377   -0.7331   -1.0106 H       1  UNL1        0.0000
    101 H           8.2425   -2.8523   -2.2620 H       1  UNL1        0.0000
    102 H          -8.8272   -1.7728    1.4971 H       1  UNL1        0.0000
@<TRIPOS>BOND
     1     1    12    1
     2     1     9    1
     3     2    11    1
     4     2    10    1
     5     2     1    1
     6     3    14    1
     7     4     7    1
     8     5    30    1
     9     5     9    1
    10     6    12    1
    11     6    41    1
    12     7     1    1
    13     8     2    1
    14     8     4    1
    15    10     5    1
    16    11     6    1
    17    13     3    1
    18    13     2    1
    19    14     1    1
    20    15    22   am
    21    15    29   am
    22    16    30    1
    23    17    44   am
    24    17    41    1
    25    18    55   am
    26    19     4    1
    27    19    15    1
    28    20    64    1
    29    20    63    1
    30    20    19    1
    31    21    20    1
    32    21    19    1
    33    22    23    1
    34    23    24   ar
    35    23    28   ar
    36    24    25   ar
    37    25    96    1
    38    25    26   ar
    39    26    97    1
    40    27    67    1
    41    27    26   ar
    42    28    27   ar
    43    29    94    2
    44    29    28    1
    45    30    31    1
    46    30    32    1
    47    31    68    1
    48    31    32    1
    49    31    69    1
    50    32    71    1
    51    32    70    1
    52    33    16   am
    53    34    39   ar
    54    34    33    1
    55    35    34   ar
    56    36    37   ar
    57    36    35   ar
    58    37    38   ar
    59    38    74    1
    60    38    39   ar
    61    39    40    1
    62    40    16   am
    63    40    92    2
    64    41    42    1
    65    41    43    1
    66    42    43    1
    67    43    77    1
    68    43    78    1
    69    44    89    2
    70    45    44    1
    71    46    45   ar
    72    46    99    1
    73    47    46   ar
    74    48    49   ar
    75    48    47   ar
    76    49    50   ar
    77    50    51    1
    78    50    45   ar
    79    51    17   am
    80    52    18    1
    81    52     3    1
    82    53    80    1
    83    53    81    1
    84    53    52    1
    85    54    53    1
    86    54    52    1
    87    55    56    1
    88    55    87    2
    89    56    57   ar
    90    57    84    1
    91    58    57   ar
    92    58   102    1
    93    59    58   ar
    94    60    61   ar
    95    60    59   ar
    96    61    56   ar
    97    62    18   am
    98    62    61    1
    99    65    21    1
   100    66    21    1
   101    72    35    1
   102    73    37    1
   103    75    42    1
   104    76    42    1
   105    79    49    1
   106    82    54    1
   107    83    54    1
   108    85    59    1
   109    86    60    1
   110    88    62    2
   111    90    51    2
   112    91    33    2
   113    93    22    2
   114    95    24    1
   115    98    36    1
   116   100    47    1
   117   101    48    1
