@<TRIPOS>MOLECULE
RhRh_EtEtiPr-O2C4_5_sp
 114 117 0 0 0
SMALL
GASTEIGER

@<TRIPOS>ATOM
      1 Rh          0.0096   -0.1015    1.2430 Rh      1  UNL1        0.0000
      2 Rh          0.0675   -0.1556   -1.1334 Rh      1  UNL1        0.0000
      3 C          -0.9118   -2.5950    0.1022 C.3     1  UNL1        0.0000
      4 C           2.5692   -0.8971    0.1174 C.3     1  UNL1        0.0000
      5 C           0.8255    2.3945    0.0224 C.3     1  UNL1        0.0000
      6 C          -2.4385    0.7992   -0.0402 C.3     1  UNL1        0.0000
      7 O           1.9218   -0.8916    1.2147 O.3     1  UNL1        0.0000
      8 O           2.0659   -0.6016   -1.0178 O.3     1  UNL1        0.0000
      9 O          -0.8385   -1.9740    1.2121 O.3     1  UNL1        0.0000
     10 O          -0.4550   -2.1515   -1.0050 O.3     1  UNL1        0.0000
     11 O           0.7902    1.7979    1.1487 O.3     1  UNL1        0.0000
     12 O           0.5432    1.8469   -1.0943 O.3     1  UNL1        0.0000
     13 O          -1.8686    0.7363    1.0988 O.3     1  UNL1        0.0000
     14 O          -1.9212    0.3696   -1.1241 O.3     1  UNL1        0.0000
     15 C           4.0542   -1.2836    0.1291 C.3     1  UNL1        0.0000
     16 C           4.8318   -0.1163   -0.5401 C.3     1  UNL1        0.0000
     17 C           6.3472   -0.3134   -0.6168 C.3     1  UNL1        0.0000
     18 C           4.2287   -2.6232   -0.6825 C.3     1  UNL1        0.0000
     19 C           3.2493   -3.7077   -0.2175 C.3     1  UNL1        0.0000
     20 C           4.1356   -2.4851   -2.2087 C.3     1  UNL1        0.0000
     21 C           4.5393   -1.5106    1.5842 C.3     1  UNL1        0.0000
     22 C           4.6328   -0.2668    2.4733 C.3     1  UNL1        0.0000
     23 C          -1.5632   -3.9810    0.0842 C.3     1  UNL1        0.0000
     24 C          -2.2751   -4.2884    1.4281 C.3     1  UNL1        0.0000
     25 C          -3.5580   -3.5344    1.7803 C.3     1  UNL1        0.0000
     26 C          -2.5642   -4.0933   -1.1278 C.3     1  UNL1        0.0000
     27 C          -3.4005   -2.8215   -1.3633 C.3     1  UNL1        0.0000
     28 C          -1.9301   -4.4977   -2.4686 C.3     1  UNL1        0.0000
     29 C          -0.4015   -5.0117   -0.0706 C.3     1  UNL1        0.0000
     30 C           0.5264   -5.1436    1.1415 C.3     1  UNL1        0.0000
     31 C           1.2700    3.8611    0.0076 C.3     1  UNL1        0.0000
     32 C           0.5712    4.5657   -1.1860 C.3     1  UNL1        0.0000
     33 C           0.9090    6.0476   -1.3600 C.3     1  UNL1        0.0000
     34 C           2.8377    3.8877   -0.1577 C.3     1  UNL1        0.0000
     35 C           3.5884    3.2511    1.0221 C.3     1  UNL1        0.0000
     36 C           3.3220    3.2711   -1.4784 C.3     1  UNL1        0.0000
     37 C           0.8802    4.5266    1.3517 C.3     1  UNL1        0.0000
     38 C          -0.6233    4.6364    1.6168 C.3     1  UNL1        0.0000
     39 C          -3.8005    1.4967   -0.1503 C.3     1  UNL1        0.0000
     40 C          -4.6254    0.7561   -1.2419 C.3     1  UNL1        0.0000
     41 C          -5.9914    1.3638   -1.5683 C.3     1  UNL1        0.0000
     42 C          -3.4972    2.9649   -0.5955 C.3     1  UNL1        0.0000
     43 C          -2.9421    3.1636   -2.0076 C.3     1  UNL1        0.0000
     44 C          -4.5788    1.5210    1.2080 C.3     1  UNL1        0.0000
     45 C          -4.8086    0.1216    1.7963 C.3     1  UNL1        0.0000
     46 C          -4.0051    2.4482    2.2935 C.3     1  UNL1        0.0000
     47 H           4.4259    0.0446   -1.5402 H       1  UNL1        0.0000
     48 H           4.6233    0.8024    0.0138 H       1  UNL1        0.0000
     49 H           6.6184   -1.2044   -1.1902 H       1  UNL1        0.0000
     50 H           6.7989   -0.4077    0.3748 H       1  UNL1        0.0000
     51 H           6.8111    0.5474   -1.1084 H       1  UNL1        0.0000
     52 H           5.2436   -2.9661   -0.4444 H       1  UNL1        0.0000
     53 H           3.2912   -3.8790    0.8595 H       1  UNL1        0.0000
     54 H           3.4710   -4.6578   -0.7135 H       1  UNL1        0.0000
     55 H           2.2219   -3.4357   -0.4785 H       1  UNL1        0.0000
     56 H           4.2884   -3.4666   -2.6696 H       1  UNL1        0.0000
     57 H           4.8919   -1.8113   -2.6175 H       1  UNL1        0.0000
     58 H           3.1533   -2.1155   -2.5103 H       1  UNL1        0.0000
     59 H           3.8743   -2.2294    2.0674 H       1  UNL1        0.0000
     60 H           4.9289   -0.5560    3.4867 H       1  UNL1        0.0000
     61 H           3.6700    0.2435    2.5412 H       1  UNL1        0.0000
     62 H           5.3756    0.4491    2.1098 H       1  UNL1        0.0000
     63 H          -2.4887   -5.3653    1.4237 H       1  UNL1        0.0000
     64 H          -1.5600   -4.1168    2.2340 H       1  UNL1        0.0000
     65 H          -3.8760   -3.8119    2.7906 H       1  UNL1        0.0000
     66 H          -4.3846   -3.7704    1.1051 H       1  UNL1        0.0000
     67 H          -3.3985   -2.4548    1.7719 H       1  UNL1        0.0000
     68 H          -3.2512   -4.9002   -0.8368 H       1  UNL1        0.0000
     69 H          -4.2354   -3.0468   -2.0348 H       1  UNL1        0.0000
     70 H          -2.7966   -2.0409   -1.8296 H       1  UNL1        0.0000
     71 H          -3.8176   -2.4080   -0.4455 H       1  UNL1        0.0000
     72 H          -2.7096   -4.5437   -3.2363 H       1  UNL1        0.0000
     73 H          -1.4494   -5.4778   -2.4340 H       1  UNL1        0.0000
     74 H          -1.1898   -3.7582   -2.7835 H       1  UNL1        0.0000
     75 H           0.1889   -4.7403   -0.9489 H       1  UNL1        0.0000
     76 H           1.3979   -5.7502    0.8799 H       1  UNL1        0.0000
     77 H           0.0307   -5.6279    1.9861 H       1  UNL1        0.0000
     78 H           0.8897   -4.1696    1.4814 H       1  UNL1        0.0000
     79 H           0.8031    4.0246   -2.1039 H       1  UNL1        0.0000
     80 H          -0.5095    4.4595   -1.0589 H       1  UNL1        0.0000
     81 H           0.3450    6.4610   -2.2018 H       1  UNL1        0.0000
     82 H           1.9706    6.2071   -1.5711 H       1  UNL1        0.0000
     83 H           0.6536    6.6368   -0.4741 H       1  UNL1        0.0000
     84 H           3.1011    4.9525   -0.1703 H       1  UNL1        0.0000
     85 H           4.6650    3.2635    0.8249 H       1  UNL1        0.0000
     86 H           3.2861    2.2132    1.1785 H       1  UNL1        0.0000
     87 H           3.4223    3.7859    1.9595 H       1  UNL1        0.0000
     88 H           4.4117    3.3497   -1.5443 H       1  UNL1        0.0000
     89 H           2.9023    3.7773   -2.3508 H       1  UNL1        0.0000
     90 H           3.0574    2.2129   -1.5492 H       1  UNL1        0.0000
     91 H           1.3367    5.5226    1.3800 H       1  UNL1        0.0000
     92 H          -1.1315    5.2806    0.8932 H       1  UNL1        0.0000
     93 H          -0.8020    5.0576    2.6109 H       1  UNL1        0.0000
     94 H          -1.0959    3.6506    1.5916 H       1  UNL1        0.0000
     95 H          -4.0221    0.7140   -2.1495 H       1  UNL1        0.0000
     96 H          -4.7608   -0.2855   -0.9385 H       1  UNL1        0.0000
     97 H          -5.9138    2.4114   -1.8746 H       1  UNL1        0.0000
     98 H          -6.6842    1.3148   -0.7234 H       1  UNL1        0.0000
     99 H          -6.4507    0.8148   -2.3962 H       1  UNL1        0.0000
    100 H          -4.4297    3.5311   -0.4865 H       1  UNL1        0.0000
    101 H          -3.6384    2.8197   -2.7773 H       1  UNL1        0.0000
    102 H          -1.9970    2.6351   -2.1466 H       1  UNL1        0.0000
    103 H          -2.7615    4.2292   -2.1829 H       1  UNL1        0.0000
    104 H          -5.5621    1.9318    0.9484 H       1  UNL1        0.0000
    105 H          -5.4655    0.1850    2.6696 H       1  UNL1        0.0000
    106 H          -3.8635   -0.3187    2.1221 H       1  UNL1        0.0000
    107 H          -5.2786   -0.5622    1.0846 H       1  UNL1        0.0000
    108 H          -3.9422    3.4880    1.9643 H       1  UNL1        0.0000
    109 H          -3.0116    2.1255    2.6078 H       1  UNL1        0.0000
    110 H          -4.6639    2.4266    3.1681 H       1  UNL1        0.0000
    111 H           5.5245   -1.9876    1.5313 H       1  UNL1        0.0000
    112 H           1.3254    3.9549    2.1660 H       1  UNL1        0.0000
    113 H          -2.7963    3.4029    0.1191 H       1  UNL1        0.0000
    114 H          -0.8542   -5.9873   -0.2842 H       1  UNL1        0.0000
@<TRIPOS>BOND
     1     2    14    1
     2     2    12    1
     3     2     8    1
     4     2    10    1
     5     2     1    1
     6     3     9    1
     7     4    15    1
     8     4     7    1
     9     5    11    1
    10     6    13    1
    11     7     1    1
    12     8     4    1
    13     9     1    1
    14    10     3    1
    15    11     1    1
    16    12     5    1
    17    13     1    1
    18    14     6    1
    19    15    21    1
    20    16    48    1
    21    16    15    1
    22    17    16    1
    23    17    50    1
    24    18    52    1
    25    18    19    1
    26    18    15    1
    27    19    53    1
    28    20    18    1
    29    21    59    1
    30    21    22    1
    31    22    61    1
    32    22    60    1
    33    23     3    1
    34    23    24    1
    35    24    25    1
    36    24    64    1
    37    25    65    1
    38    26    68    1
    39    26    23    1
    40    27    26    1
    41    27    71    1
    42    28    73    1
    43    28    26    1
    44    29    23    1
    45    29    30    1
    46    30    78    1
    47    30    77    1
    48    31     5    1
    49    31    37    1
    50    32    80    1
    51    32    31    1
    52    33    32    1
    53    33    83    1
    54    34    31    1
    55    34    35    1
    56    35    86    1
    57    35    87    1
    58    36    34    1
    59    37    91    1
    60    37    38    1
    61    37   112    1
    62    38    93    1
    63    39     6    1
    64    39    44    1
    65    40    96    1
    66    40    39    1
    67    41    40    1
    68    41    98    1
    69    42   100    1
    70    42    39    1
    71    42   113    1
    72    43    42    1
    73    44    45    1
    74    44    46    1
    75    45   106    1
    76    45   105    1
    77    46   109    1
    78    46   110    1
    79    47    16    1
    80    49    17    1
    81    51    17    1
    82    54    19    1
    83    55    19    1
    84    56    20    1
    85    57    20    1
    86    58    20    1
    87    62    22    1
    88    63    24    1
    89    66    25    1
    90    67    25    1
    91    69    27    1
    92    70    27    1
    93    72    28    1
    94    74    28    1
    95    75    29    1
    96    76    30    1
    97    79    32    1
    98    81    33    1
    99    82    33    1
   100    84    34    1
   101    85    35    1
   102    88    36    1
   103    89    36    1
   104    90    36    1
   105    92    38    1
   106    94    38    1
   107    95    40    1
   108    97    41    1
   109    99    41    1
   110   101    43    1
   111   102    43    1
   112   103    43    1
   113   104    44    1
   114   107    45    1
   115   108    46    1
   116   111    21    1
   117   114    29    1
