@<TRIPOS>MOLECULE
RhRh_ACyPentyl4_6_sp
 126 141 0 0 0
SMALL
GASTEIGER

@<TRIPOS>ATOM
      1 Rh         -0.4134   -0.3953    0.2420 Rh      1  UNL1        0.0000
      2 Rh         -0.2392   -1.2451   -1.9872 Rh      1  UNL1        0.0000
      3 C          -2.1735   -2.6032   -0.3248 C.3     1  UNL1        0.0000
      4 C          -2.1605    0.8828   -1.6643 C.3     1  UNL1        0.0000
      5 C           1.4981    0.9862   -1.4006 C.3     1  UNL1        0.0000
      6 C           1.6071   -2.4254   -0.0966 C.3     1  UNL1        0.0000
      7 O          -1.7406   -1.9046    0.6458 O.3     1  UNL1        0.0000
      8 O          -1.7091   -2.6136   -1.5045 O.3     1  UNL1        0.0000
      9 O           1.1580   -1.6124    0.7687 O.3     1  UNL1        0.0000
     10 O           1.2107   -2.5289   -1.2984 O.3     1  UNL1        0.0000
     11 O           1.2185    0.1769   -2.3363 O.3     1  UNL1        0.0000
     12 O           0.8951    1.0776   -0.2859 O.3     1  UNL1        0.0000
     13 O          -1.6832    0.1204   -2.5575 O.3     1  UNL1        0.0000
     14 O          -1.9418    0.8018   -0.4132 O.3     1  UNL1        0.0000
     15 N          -4.1994   -2.7800    0.9519 N.am    1  UNL1        0.0000
     16 N           3.9722   -2.6406    0.5027 N.am    1  UNL1        0.0000
     17 N           3.0826    2.4273   -0.2964 N.am    1  UNL1        0.0000
     18 N          -2.9297    3.1004   -1.1159 N.am    1  UNL1        0.0000
     19 C          -3.3623   -3.5278    0.0043 C.3     1  UNL1        0.0000
     20 C          -2.8219   -4.8767    0.5389 C.3     1  UNL1        0.0000
     21 C          -2.3481   -5.5862   -0.7361 C.3     1  UNL1        0.0000
     22 C          -3.3768   -5.1877   -1.8249 C.3     1  UNL1        0.0000
     23 C          -4.1306   -3.9531   -1.2690 C.3     1  UNL1        0.0000
     24 C          -4.6400   -1.4924    0.5754 C.2     1  UNL1        0.0000
     25 C          -5.0770   -0.8073    1.8155 C.ar    1  UNL1        0.0000
     26 C          -5.5847    0.4702    2.0042 C.ar    1  UNL1        0.0000
     27 C          -5.8644    0.8530    3.3218 C.ar    1  UNL1        0.0000
     28 C          -5.6399   -0.0176    4.3960 C.ar    1  UNL1        0.0000
     29 C          -5.1164   -1.3002    4.1909 C.ar    1  UNL1        0.0000
     30 C          -4.8385   -1.6702    2.8843 C.ar    1  UNL1        0.0000
     31 C          -4.2231   -2.9236    2.3599 C.2     1  UNL1        0.0000
     32 C           2.7153   -3.3947    0.3833 C.3     1  UNL1        0.0000
     33 C           2.2469   -4.0604    1.6958 C.3     1  UNL1        0.0000
     34 C           1.1730   -5.0412    1.2018 C.3     1  UNL1        0.0000
     35 C           1.6768   -5.5408   -0.1796 C.3     1  UNL1        0.0000
     36 C           2.8487   -4.6075   -0.5642 C.3     1  UNL1        0.0000
     37 C           4.7067   -2.2236   -0.6337 C.2     1  UNL1        0.0000
     38 C           5.8634   -1.4454   -0.1179 C.ar    1  UNL1        0.0000
     39 C           6.8959   -0.8254   -0.8027 C.ar    1  UNL1        0.0000
     40 C           7.8222   -0.0978   -0.0449 C.ar    1  UNL1        0.0000
     41 C           7.7005   -0.0038    1.3472 C.ar    1  UNL1        0.0000
     42 C           6.6477   -0.6313    2.0252 C.ar    1  UNL1        0.0000
     43 C           5.7388   -1.3480    1.2641 C.ar    1  UNL1        0.0000
     44 C           4.4910   -2.0522    1.6773 C.2     1  UNL1        0.0000
     45 C           2.6708    1.9509   -1.6342 C.3     1  UNL1        0.0000
     46 C           3.8884    1.2549   -2.3424 C.3     1  UNL1        0.0000
     47 C           4.1318    2.0402   -3.6458 C.3     1  UNL1        0.0000
     48 C           3.5333    3.4245   -3.3682 C.3     1  UNL1        0.0000
     49 C           2.2483    3.0802   -2.6138 C.3     1  UNL1        0.0000
     50 C           3.4027    1.4317    0.6525 C.2     1  UNL1        0.0000
     51 C           3.4398    2.0831    1.9788 C.ar    1  UNL1        0.0000
     52 C           3.6999    1.5498    3.2327 C.ar    1  UNL1        0.0000
     53 C           3.6245    2.4300    4.3200 C.ar    1  UNL1        0.0000
     54 C           3.2994    3.7809    4.1394 C.ar    1  UNL1        0.0000
     55 C           3.0303    4.3000    2.8661 C.ar    1  UNL1        0.0000
     56 C           3.1041    3.4228    1.7959 C.ar    1  UNL1        0.0000
     57 C           2.8300    3.6536    0.3443 C.2     1  UNL1        0.0000
     58 C          -3.0932    2.0164   -2.1097 C.3     1  UNL1        0.0000
     59 C          -4.5501    1.5244   -2.2687 C.3     1  UNL1        0.0000
     60 C          -5.2401    2.6240   -3.0959 C.3     1  UNL1        0.0000
     61 C          -4.1007    3.3255   -3.8893 C.3     1  UNL1        0.0000
     62 C          -2.8155    2.5562   -3.5299 C.3     1  UNL1        0.0000
     63 C          -3.7700    3.4227   -0.0324 C.2     1  UNL1        0.0000
     64 C          -2.9598    4.2836    0.8779 C.ar    1  UNL1        0.0000
     65 C          -3.3118    4.8871    2.0750 C.ar    1  UNL1        0.0000
     66 C          -2.3178    5.6142    2.7420 C.ar    1  UNL1        0.0000
     67 C          -1.0242    5.7247    2.2153 C.ar    1  UNL1        0.0000
     68 C          -0.6770    5.1148    1.0032 C.ar    1  UNL1        0.0000
     69 C          -1.6735    4.3982    0.3561 C.ar    1  UNL1        0.0000
     70 C          -1.6249    3.6109   -0.8984 C.2     1  UNL1        0.0000
     71 H          -2.0522   -4.7557    1.3011 H       1  UNL1        0.0000
     72 H          -3.6530   -5.4144    1.0004 H       1  UNL1        0.0000
     73 H          -2.2735   -6.6671   -0.5919 H       1  UNL1        0.0000
     74 H          -1.3536   -5.2266   -1.0144 H       1  UNL1        0.0000
     75 H          -4.0777   -6.0036   -2.0238 H       1  UNL1        0.0000
     76 H          -2.8762   -4.9516   -2.7660 H       1  UNL1        0.0000
     77 H          -5.1436   -4.2206   -0.9544 H       1  UNL1        0.0000
     78 H          -4.2062   -3.1330   -1.9798 H       1  UNL1        0.0000
     79 H          -5.7314    1.1527    1.1751 H       1  UNL1        0.0000
     80 H          -6.2564    1.8468    3.5137 H       1  UNL1        0.0000
     81 H          -5.8665    0.3129    5.4050 H       1  UNL1        0.0000
     82 H          -4.9209   -1.9789    5.0140 H       1  UNL1        0.0000
     83 H           3.0970   -4.5956    2.1294 H       1  UNL1        0.0000
     84 H           1.8896   -3.3418    2.4287 H       1  UNL1        0.0000
     85 H           0.2212   -4.5106    1.0916 H       1  UNL1        0.0000
     86 H           1.0010   -5.8516    1.9144 H       1  UNL1        0.0000
     87 H           2.0106   -6.5810   -0.1345 H       1  UNL1        0.0000
     88 H           0.8822   -5.4928   -0.9278 H       1  UNL1        0.0000
     89 H           2.8484   -4.3124   -1.6094 H       1  UNL1        0.0000
     90 H           3.8113   -5.0799   -0.3442 H       1  UNL1        0.0000
     91 H           6.5368   -0.5565    3.1015 H       1  UNL1        0.0000
     92 H           3.7007    0.1947   -2.5076 H       1  UNL1        0.0000
     93 H           4.7537    1.3311   -1.6821 H       1  UNL1        0.0000
     94 H           5.1911    2.0657   -3.9180 H       1  UNL1        0.0000
     95 H           3.5906    1.5691   -4.4741 H       1  UNL1        0.0000
     96 H           4.1974    4.0154   -2.7252 H       1  UNL1        0.0000
     97 H           3.3423    4.0074   -4.2739 H       1  UNL1        0.0000
     98 H           1.7619    3.9095   -2.1131 H       1  UNL1        0.0000
     99 H           1.5285    2.6351   -3.3069 H       1  UNL1        0.0000
    100 H           3.9263    0.4953    3.3566 H       1  UNL1        0.0000
    101 H           3.8140    2.0593    5.3223 H       1  UNL1        0.0000
    102 H           3.2479    4.4339    5.0051 H       1  UNL1        0.0000
    103 H           2.7682    5.3418    2.7159 H       1  UNL1        0.0000
    104 H          -5.0364    1.2939   -1.3284 H       1  UNL1        0.0000
    105 H          -4.4817    0.5930   -2.8376 H       1  UNL1        0.0000
    106 H          -6.0035    2.1980   -3.7527 H       1  UNL1        0.0000
    107 H          -5.7427    3.3281   -2.4279 H       1  UNL1        0.0000
    108 H          -4.0115    4.3721   -3.5822 H       1  UNL1        0.0000
    109 H          -4.2751    3.3246   -4.9686 H       1  UNL1        0.0000
    110 H          -2.6818    1.6878   -4.1792 H       1  UNL1        0.0000
    111 H          -1.9068    3.1530   -3.5795 H       1  UNL1        0.0000
    112 H           0.3230    5.1883    0.5882 H       1  UNL1        0.0000
    113 O          -0.6667    3.3911   -1.6119 O.2     1  UNL1        0.0000
    114 O          -4.9280    3.0869    0.1328 O.2     1  UNL1        0.0000
    115 O           2.4724    4.7001   -0.1644 O.2     1  UNL1        0.0000
    116 O           3.5743    0.2615    0.3782 O.2     1  UNL1        0.0000
    117 O           4.0223   -2.1084    2.7967 O.2     1  UNL1        0.0000
    118 O           4.4230   -2.4558   -1.7907 O.2     1  UNL1        0.0000
    119 O          -3.8241   -3.8719    3.0022 O.2     1  UNL1        0.0000
    120 O          -4.6092   -1.0633   -0.5623 O.2     1  UNL1        0.0000
    121 H           6.9690   -0.8989   -1.8823 H       1  UNL1        0.0000
    122 H           8.6462    0.4045   -0.5418 H       1  UNL1        0.0000
    123 H           8.4329    0.5693    1.9071 H       1  UNL1        0.0000
    124 H          -4.3153    4.7878    2.4743 H       1  UNL1        0.0000
    125 H          -2.5506    6.0980    3.6855 H       1  UNL1        0.0000
    126 H          -0.2765    6.2924    2.7603 H       1  UNL1        0.0000
@<TRIPOS>BOND
     1     1     7    1
     2     1     9    1
     3     2     8    1
     4     2    10    1
     5     2     1    1
     6     3    19    1
     7     3     7    1
     8     4    14    1
     9     5    12    1
    10     6    32    1
    11     6     9    1
    12     8     3    1
    13    10     6    1
    14    11     2    1
    15    11     5    1
    16    12     1    1
    17    13     2    1
    18    13     4    1
    19    14     1    1
    20    15    31   am
    21    16    44   am
    22    17    57   am
    23    17    50   am
    24    18    70   am
    25    18    63   am
    26    19    20    1
    27    19    15    1
    28    20    72    1
    29    20    71    1
    30    21    73    1
    31    21    20    1
    32    22    23    1
    33    22    21    1
    34    23    77    1
    35    23    19    1
    36    24    15   am
    37    24    25    1
    38    25    26   ar
    39    25    30   ar
    40    26    27   ar
    41    27    80    1
    42    27    28   ar
    43    28    81    1
    44    29    28   ar
    45    29    82    1
    46    30    29   ar
    47    31    30    1
    48    31   119    2
    49    32    16    1
    50    32    33    1
    51    33    83    1
    52    33    84    1
    53    34    33    1
    54    34    86    1
    55    35    87    1
    56    35    34    1
    57    36    90    1
    58    36    35    1
    59    36    32    1
    60    37    38    1
    61    37    16   am
    62    38    43   ar
    63    39    38   ar
    64    39    40   ar
    65    40    41   ar
    66    41   123    1
    67    41    42   ar
    68    42    91    1
    69    43    44    1
    70    43    42   ar
    71    44   117    2
    72    45     5    1
    73    45    17    1
    74    46    93    1
    75    46    45    1
    76    47    48    1
    77    47    46    1
    78    48    96    1
    79    48    49    1
    80    49    98    1
    81    49    45    1
    82    50    51    1
    83    51    52   ar
    84    52   100    1
    85    52    53   ar
    86    53   101    1
    87    54    53   ar
    88    54   102    1
    89    55    54   ar
    90    56    51   ar
    91    56    55   ar
    92    57    56    1
    93    58     4    1
    94    58    18    1
    95    59    58    1
    96    59   104    1
    97    60   107    1
    98    60    59    1
    99    61   108    1
   100    61    62    1
   101    61    60    1
   102    62    58    1
   103    63   114    2
   104    63    64    1
   105    64    65   ar
   106    65   124    1
   107    65    66   ar
   108    66   125    1
   109    67    66   ar
   110    67   126    1
   111    68    67   ar
   112    69    64   ar
   113    69    68   ar
   114    70    69    1
   115    74    21    1
   116    75    22    1
   117    76    22    1
   118    78    23    1
   119    79    26    1
   120    85    34    1
   121    88    35    1
   122    89    36    1
   123    92    46    1
   124    94    47    1
   125    95    47    1
   126    97    48    1
   127    99    49    1
   128   103    55    1
   129   105    59    1
   130   106    60    1
   131   109    61    1
   132   110    62    1
   133   111    62    1
   134   112    68    1
   135   113    70    2
   136   115    57    2
   137   116    50    2
   138   118    37    2
   139   120    24    2
   140   121    39    1
   141   122    40    1
