@<TRIPOS>MOLECULE
RhRh_ACB4_13_sp
 114 129 0 0 0
SMALL
GASTEIGER

@<TRIPOS>ATOM
      1 Rh          0.4705   -0.3636    1.3556 Rh      1  UNL1        0.0000
      2 Rh         -0.6260    0.0668   -0.7301 Rh      1  UNL1        0.0000
      3 C           2.1850   -0.5303   -0.9602 C.3     1  UNL1        0.0000
      4 C          -2.3262    0.2746    1.5977 C.3     1  UNL1        0.0000
      5 C          -0.5994   -2.7114    0.0865 C.3     1  UNL1        0.0000
      6 C           0.4034    2.4153    0.5621 C.3     1  UNL1        0.0000
      7 O           0.7651    1.6593    1.5167 O.3     1  UNL1        0.0000
      8 O          -0.2158    2.0617   -0.4892 O.3     1  UNL1        0.0000
      9 O          -1.3445   -0.1171    2.2972 O.3     1  UNL1        0.0000
     10 O          -2.3634    0.3432    0.3277 O.3     1  UNL1        0.0000
     11 O           0.1064   -2.3747    1.0838 O.3     1  UNL1        0.0000
     12 O          -0.9906   -1.9454   -0.8517 O.3     1  UNL1        0.0000
     13 O           2.2193   -0.5751    0.3102 O.3     1  UNL1        0.0000
     14 O           1.1860   -0.2135   -1.6745 O.3     1  UNL1        0.0000
     15 N           2.1694    3.9266    0.0305 N.am    1  UNL1        0.0000
     16 N          -4.2719    1.6935    1.4822 N.am    1  UNL1        0.0000
     17 N          -2.3906   -4.1439   -0.6070 N.am    1  UNL1        0.0000
     18 N           4.3364   -1.6220   -0.7802 N.am    1  UNL1        0.0000
     19 C           0.8345    3.8731    0.6501 C.3     1  UNL1        0.0000
     20 C           0.7555    4.5481    2.0486 C.3     1  UNL1        0.0000
     21 C           0.1332    5.7996    1.3852 C.3     1  UNL1        0.0000
     22 C          -0.1563    4.9503    0.1246 C.3     1  UNL1        0.0000
     23 C           3.3520    3.5046    0.6975 C.2     1  UNL1        0.0000
     24 C           4.4173    3.4721   -0.3422 C.ar    1  UNL1        0.0000
     25 C           5.7586    3.1418   -0.2304 C.ar    1  UNL1        0.0000
     26 C           6.5293    3.1921   -1.3978 C.ar    1  UNL1        0.0000
     27 C           5.9631    3.5603   -2.6252 C.ar    1  UNL1        0.0000
     28 C           4.6041    3.8813   -2.7271 C.ar    1  UNL1        0.0000
     29 C           3.8511    3.8268   -1.5642 C.ar    1  UNL1        0.0000
     30 C           2.3944    4.0602   -1.3617 C.2     1  UNL1        0.0000
     31 C          -3.5820    0.7415    2.3389 C.3     1  UNL1        0.0000
     32 C          -3.2841    1.2076    3.7915 C.3     1  UNL1        0.0000
     33 C          -3.6971   -0.1965    4.2964 C.3     1  UNL1        0.0000
     34 C          -4.4101   -0.4375    2.9426 C.3     1  UNL1        0.0000
     35 C          -5.3109    1.3946    0.5811 C.2     1  UNL1        0.0000
     36 C          -5.4224    2.5838   -0.3128 C.ar    1  UNL1        0.0000
     37 C          -6.3061    2.8368   -1.3495 C.ar    1  UNL1        0.0000
     38 C          -6.1538    4.0431   -2.0446 C.ar    1  UNL1        0.0000
     39 C          -5.1472    4.9539   -1.7009 C.ar    1  UNL1        0.0000
     40 C          -4.2599    4.6891   -0.6503 C.ar    1  UNL1        0.0000
     41 C          -4.4193    3.4915    0.0297 C.ar    1  UNL1        0.0000
     42 C          -3.6365    2.9040    1.1482 C.2     1  UNL1        0.0000
     43 C          -1.0514   -4.1698   -0.0331 C.3     1  UNL1        0.0000
     44 C          -0.8430   -4.9861    1.2667 C.3     1  UNL1        0.0000
     45 C           0.5170   -5.4701    0.7026 C.3     1  UNL1        0.0000
     46 C           0.0368   -5.0605   -0.7110 C.3     1  UNL1        0.0000
     47 C          -3.3798   -3.4038    0.0678 C.2     1  UNL1        0.0000
     48 C          -4.4616   -3.1455   -0.9127 C.ar    1  UNL1        0.0000
     49 C          -5.6530   -2.4513   -0.7690 C.ar    1  UNL1        0.0000
     50 C          -6.4528   -2.3166   -1.9104 C.ar    1  UNL1        0.0000
     51 C          -6.0629   -2.8652   -3.1385 C.ar    1  UNL1        0.0000
     52 C          -4.8503   -3.5541   -3.2724 C.ar    1  UNL1        0.0000
     53 C          -4.0609   -3.6764   -2.1401 C.ar    1  UNL1        0.0000
     54 C          -2.7006   -4.2695   -1.9813 C.2     1  UNL1        0.0000
     55 C           3.4799   -0.8673   -1.6904 C.3     1  UNL1        0.0000
     56 C           4.1750    0.3274   -2.4219 C.3     1  UNL1        0.0000
     57 C           4.4204   -0.5872   -3.6429 C.3     1  UNL1        0.0000
     58 C           3.3494   -1.5535   -3.0844 C.3     1  UNL1        0.0000
     59 C           5.2980   -1.0921    0.1089 C.2     1  UNL1        0.0000
     60 C           5.5826   -2.1769    1.0919 C.ar    1  UNL1        0.0000
     61 C           6.4824   -2.2066    2.1458 C.ar    1  UNL1        0.0000
     62 C           6.5081   -3.3628    2.9354 C.ar    1  UNL1        0.0000
     63 C           5.6554   -4.4417    2.6683 C.ar    1  UNL1        0.0000
     64 C           4.7491   -4.4001    1.6019 C.ar    1  UNL1        0.0000
     65 C           4.7353   -3.2511    0.8261 C.ar    1  UNL1        0.0000
     66 C           3.8830   -2.8837   -0.3320 C.2     1  UNL1        0.0000
     67 H           0.0346    4.0071    2.6637 H       1  UNL1        0.0000
     68 H           1.6905    4.6457    2.5944 H       1  UNL1        0.0000
     69 H           0.8746    6.5815    1.1979 H       1  UNL1        0.0000
     70 H          -0.7294    6.2431    1.8875 H       1  UNL1        0.0000
     71 H           0.0533    5.3681   -0.8560 H       1  UNL1        0.0000
     72 H          -1.1621    4.5312    0.1409 H       1  UNL1        0.0000
     73 H           6.5880    3.5861   -3.5124 H       1  UNL1        0.0000
     74 H           4.1475    4.1536   -3.6724 H       1  UNL1        0.0000
     75 H          -2.2708    1.5558    3.9842 H       1  UNL1        0.0000
     76 H          -4.0024    1.9788    4.0790 H       1  UNL1        0.0000
     77 H          -2.8316   -0.8490    4.4220 H       1  UNL1        0.0000
     78 H          -4.3173   -0.2406    5.1944 H       1  UNL1        0.0000
     79 H          -5.4641   -0.1618    2.9754 H       1  UNL1        0.0000
     80 H          -4.2992   -1.4041    2.4533 H       1  UNL1        0.0000
     81 H          -6.8229    4.2764   -2.8667 H       1  UNL1        0.0000
     82 H          -5.0519    5.8778   -2.2620 H       1  UNL1        0.0000
     83 H          -3.4734    5.3851   -0.3800 H       1  UNL1        0.0000
     84 H          -0.8554   -4.4192    2.1962 H       1  UNL1        0.0000
     85 H          -1.5803   -5.7912    1.3104 H       1  UNL1        0.0000
     86 H           1.3437   -4.8410    1.0373 H       1  UNL1        0.0000
     87 H           0.7750   -6.5212    0.8513 H       1  UNL1        0.0000
     88 H          -0.4393   -5.8795   -1.2486 H       1  UNL1        0.0000
     89 H           0.7410   -4.5549   -1.3703 H       1  UNL1        0.0000
     90 H          -5.9313   -1.9954    0.1727 H       1  UNL1        0.0000
     91 H          -7.3853   -1.7660   -1.8421 H       1  UNL1        0.0000
     92 H          -6.7056   -2.7411   -4.0046 H       1  UNL1        0.0000
     93 H          -4.5262   -3.9644   -4.2226 H       1  UNL1        0.0000
     94 H           3.4233    1.0894   -2.6340 H       1  UNL1        0.0000
     95 H           5.0217    0.7788   -1.9150 H       1  UNL1        0.0000
     96 H           4.2406   -0.1580   -4.6310 H       1  UNL1        0.0000
     97 H           5.4210   -1.0279   -3.6259 H       1  UNL1        0.0000
     98 H           3.5462   -2.6243   -3.1023 H       1  UNL1        0.0000
     99 H           2.3569   -1.3592   -3.4919 H       1  UNL1        0.0000
    100 H           7.1295   -1.3603    2.3481 H       1  UNL1        0.0000
    101 H           4.0776   -5.2246    1.3884 H       1  UNL1        0.0000
    102 O          -2.6290    3.3264    1.6852 O.2     1  UNL1        0.0000
    103 O          -5.9761    0.3784    0.5531 O.2     1  UNL1        0.0000
    104 O          -3.2818   -3.0385    1.2257 O.2     1  UNL1        0.0000
    105 O          -1.9922   -4.7530   -2.8384 O.2     1  UNL1        0.0000
    106 O           2.9499   -3.4967   -0.8123 O.2     1  UNL1        0.0000
    107 O           5.7943    0.0155    0.0741 O.2     1  UNL1        0.0000
    108 O           1.5634    4.3010   -2.2128 O.2     1  UNL1        0.0000
    109 O           3.4520    3.2330    1.8740 O.2     1  UNL1        0.0000
    110 H           6.1783    2.8314    0.7187 H       1  UNL1        0.0000
    111 H           7.5812    2.9292   -1.3548 H       1  UNL1        0.0000
    112 H          -7.0769    2.1195   -1.6096 H       1  UNL1        0.0000
    113 H           7.1953   -3.4241    3.7732 H       1  UNL1        0.0000
    114 H           5.6966   -5.3212    3.3028 H       1  UNL1        0.0000
@<TRIPOS>BOND
     1     1     7    1
     2     1     9    1
     3     2     8    1
     4     2    10    1
     5     2     1    1
     6     3    13    1
     7     4     9    1
     8     4    31    1
     9     5    11    1
    10     6    19    1
    11     6     7    1
    12     8     6    1
    13    10     4    1
    14    11     1    1
    15    12     2    1
    16    12     5    1
    17    13     1    1
    18    14     3    1
    19    14     2    1
    20    15    19    1
    21    15    23   am
    22    16    31    1
    23    17    43    1
    24    17    47   am
    25    18    66   am
    26    18    59   am
    27    19    20    1
    28    20    68    1
    29    20    67    1
    30    21    70    1
    31    21    20    1
    32    22    72    1
    33    22    19    1
    34    22    21    1
    35    23   109    2
    36    24    25   ar
    37    24    23    1
    38    25   110    1
    39    26   111    1
    40    26    25   ar
    41    27    26   ar
    42    28    27   ar
    43    28    29   ar
    44    29    30    1
    45    29    24   ar
    46    30    15   am
    47    31    34    1
    48    31    32    1
    49    32    75    1
    50    32    76    1
    51    32    33    1
    52    33    77    1
    53    33    78    1
    54    34    79    1
    55    34    33    1
    56    35    16   am
    57    36    41   ar
    58    36    35    1
    59    37    36   ar
    60    38    39   ar
    61    38    37   ar
    62    39    40   ar
    63    40    83    1
    64    40    41   ar
    65    41    42    1
    66    42    16   am
    67    42   102    2
    68    43     5    1
    69    43    44    1
    70    44    85    1
    71    44    84    1
    72    45    87    1
    73    45    86    1
    74    45    44    1
    75    46    43    1
    76    46    45    1
    77    47   104    2
    78    48    49   ar
    79    48    47    1
    80    49    90    1
    81    50    91    1
    82    50    49   ar
    83    51    50   ar
    84    52    51   ar
    85    52    53   ar
    86    53    54    1
    87    53    48   ar
    88    54    17   am
    89    55     3    1
    90    55    18    1
    91    56    95    1
    92    56    55    1
    93    57    97    1
    94    57    58    1
    95    57    56    1
    96    58    55    1
    97    59    60    1
    98    60    61   ar
    99    61   100    1
   100    61    62   ar
   101    62   113    1
   102    63    62   ar
   103    63   114    1
   104    64    63   ar
   105    65    60   ar
   106    65    64   ar
   107    66    65    1
   108    69    21    1
   109    71    22    1
   110    73    27    1
   111    74    28    1
   112    80    34    1
   113    81    38    1
   114    82    39    1
   115    88    46    1
   116    89    46    1
   117    92    51    1
   118    93    52    1
   119    94    56    1
   120    96    57    1
   121    98    58    1
   122    99    58    1
   123   101    64    1
   124   103    35    2
   125   105    54    2
   126   106    66    2
   127   107    59    2
   128   108    30    2
   129   112    37    1
