@<TRIPOS>MOLECULE
RhRh_S-PTV4_8_sp
 122 133 0 0 0
SMALL
GASTEIGER

@<TRIPOS>ATOM
      1 Rh          1.3494   -0.5647    1.1532 Rh      1  UNL1        0.0000
      2 Rh          0.1528   -0.1636   -0.8812 Rh      1  UNL1        0.0000
      3 C          -1.1618    0.8163    1.4760 C.3     1  UNL1        0.0000
      4 C           2.7235   -1.3852   -1.2552 C.3     1  UNL1        0.0000
      5 C           1.9673    1.9512   -0.1005 C.3     1  UNL1        0.0000
      6 C          -0.6347   -2.5625    0.5259 C.3     1  UNL1        0.0000
      7 O           2.2927    1.2437    0.8989 O.3     1  UNL1        0.0000
      8 O           1.2009    1.5996   -1.0526 O.3     1  UNL1        0.0000
      9 O          -0.1938    0.3589    2.1565 O.3     1  UNL1        0.0000
     10 O          -1.2558    0.8229    0.2105 O.3     1  UNL1        0.0000
     11 O           0.2950   -2.3148    1.3626 O.3     1  UNL1        0.0000
     12 O          -0.8889   -1.9064   -0.5247 O.3     1  UNL1        0.0000
     13 O           2.8411   -1.4111    0.0092 O.3     1  UNL1        0.0000
     14 O           1.6728   -1.1056   -1.9094 O.3     1  UNL1        0.0000
     15 N           1.4304    4.2691   -0.5075 N.am    1  UNL1        0.0000
     16 N          -3.5207    1.4182    1.4244 N.am    1  UNL1        0.0000
     17 N          -2.7834   -3.7505    0.2141 N.am    1  UNL1        0.0000
     18 N           5.1553   -1.5042   -1.2400 N.am    1  UNL1        0.0000
     19 C           1.4432    5.1642   -1.5945 C.2     1  UNL1        0.0000
     20 C           0.0846    5.7773   -1.6240 C.ar    1  UNL1        0.0000
     21 C          -0.4472    6.7336   -2.4737 C.ar    1  UNL1        0.0000
     22 C          -1.7824    7.1051   -2.2668 C.ar    1  UNL1        0.0000
     23 C          -2.5431    6.5286   -1.2428 C.ar    1  UNL1        0.0000
     24 C          -1.9991    5.5619   -0.3862 C.ar    1  UNL1        0.0000
     25 C          -0.6766    5.2053   -0.6013 C.ar    1  UNL1        0.0000
     26 C           0.1758    4.2194    0.1169 C.2     1  UNL1        0.0000
     27 C          -3.9666    0.2988    0.6959 C.2     1  UNL1        0.0000
     28 C          -5.0609    0.7953   -0.1823 C.ar    1  UNL1        0.0000
     29 C          -5.8409    0.1157   -1.1038 C.ar    1  UNL1        0.0000
     30 C          -6.8034    0.8585   -1.7990 C.ar    1  UNL1        0.0000
     31 C          -6.9646    2.2305   -1.5709 C.ar    1  UNL1        0.0000
     32 C          -6.1636    2.9082   -0.6423 C.ar    1  UNL1        0.0000
     33 C          -5.2148    2.1645    0.0411 C.ar    1  UNL1        0.0000
     34 C          -4.2019    2.5849    1.0491 C.2     1  UNL1        0.0000
     35 C          -3.9490   -3.5518    0.9852 C.2     1  UNL1        0.0000
     36 C          -5.0711   -3.4565    0.0125 C.ar    1  UNL1        0.0000
     37 C          -6.4285   -3.2757    0.2261 C.ar    1  UNL1        0.0000
     38 C          -7.2567   -3.2277   -0.9026 C.ar    1  UNL1        0.0000
     39 C          -6.7273   -3.3603   -2.1931 C.ar    1  UNL1        0.0000
     40 C          -5.3532   -3.5475   -2.3948 C.ar    1  UNL1        0.0000
     41 C          -4.5434   -3.5913   -1.2702 C.ar    1  UNL1        0.0000
     42 C          -3.0666   -3.7976   -1.1612 C.2     1  UNL1        0.0000
     43 C           5.7016   -2.4652   -0.3680 C.2     1  UNL1        0.0000
     44 C           6.6509   -1.7174    0.5073 C.ar    1  UNL1        0.0000
     45 C           7.4862   -2.1843    1.5095 C.ar    1  UNL1        0.0000
     46 C           8.2667   -1.2399    2.1878 C.ar    1  UNL1        0.0000
     47 C           8.2037    0.1200    1.8596 C.ar    1  UNL1        0.0000
     48 C           7.3579    0.5810    0.8434 C.ar    1  UNL1        0.0000
     49 C           6.5871   -0.3624    0.1807 C.ar    1  UNL1        0.0000
     50 C           5.5876   -0.2037   -0.9077 C.2     1  UNL1        0.0000
     51 C           2.5432    3.3657   -0.2263 C.3     1  UNL1        0.0000
     52 C           3.4551    3.8775    0.9104 C.3     1  UNL1        0.0000
     53 C           2.7650    4.0080    2.2726 C.3     1  UNL1        0.0000
     54 C           4.7427    3.0485    1.0061 C.3     1  UNL1        0.0000
     55 C          -2.3139    1.4574    2.2440 C.3     1  UNL1        0.0000
     56 C          -2.4982    0.9311    3.6835 C.3     1  UNL1        0.0000
     57 C          -2.7580   -0.5764    3.7807 C.3     1  UNL1        0.0000
     58 C          -3.5964    1.7345    4.3891 C.3     1  UNL1        0.0000
     59 C          -1.4857   -3.7819    0.8699 C.3     1  UNL1        0.0000
     60 C          -0.7037   -5.1229    0.7004 C.3     1  UNL1        0.0000
     61 C           0.2784   -5.1124   -0.4745 C.3     1  UNL1        0.0000
     62 C           0.0159   -5.4779    2.0075 C.3     1  UNL1        0.0000
     63 C           3.9805   -1.6443   -2.0890 C.3     1  UNL1        0.0000
     64 C           3.9250   -2.9343   -2.9590 C.3     1  UNL1        0.0000
     65 C           3.0781   -4.0530   -2.3452 C.3     1  UNL1        0.0000
     66 C           3.4113   -2.5799   -4.3610 C.3     1  UNL1        0.0000
     67 H          -3.5757    6.8357   -1.1099 H       1  UNL1        0.0000
     68 H          -2.5851    5.1047    0.4039 H       1  UNL1        0.0000
     69 H          -7.7190    2.7776   -2.1273 H       1  UNL1        0.0000
     70 H          -6.2723    3.9722   -0.4627 H       1  UNL1        0.0000
     71 H          -8.3253   -3.0839   -0.7780 H       1  UNL1        0.0000
     72 H          -7.3943   -3.3203   -3.0485 H       1  UNL1        0.0000
     73 H          -4.9293   -3.6561   -3.3873 H       1  UNL1        0.0000
     74 H           8.8197    0.8277    2.4052 H       1  UNL1        0.0000
     75 H           7.2987    1.6318    0.5848 H       1  UNL1        0.0000
     76 H           3.1360    3.3590   -1.1481 H       1  UNL1        0.0000
     77 H           3.4726    4.4167    3.0014 H       1  UNL1        0.0000
     78 H           2.4202    3.0364    2.6311 H       1  UNL1        0.0000
     79 H           1.9030    4.6770    2.2323 H       1  UNL1        0.0000
     80 H           5.2040    2.9085    0.0247 H       1  UNL1        0.0000
     81 H           4.5406    2.0592    1.4212 H       1  UNL1        0.0000
     82 H           5.4596    3.5553    1.6604 H       1  UNL1        0.0000
     83 H          -2.0514    2.5202    2.2996 H       1  UNL1        0.0000
     84 H          -3.7090   -0.8608    3.3257 H       1  UNL1        0.0000
     85 H          -2.7885   -0.8739    4.8337 H       1  UNL1        0.0000
     86 H          -1.9710   -1.1517    3.2904 H       1  UNL1        0.0000
     87 H          -4.5755    1.5301    3.9427 H       1  UNL1        0.0000
     88 H          -3.4183    2.8121    4.3234 H       1  UNL1        0.0000
     89 H          -3.6509    1.4565    5.4457 H       1  UNL1        0.0000
     90 H          -1.7342   -3.6730    1.9287 H       1  UNL1        0.0000
     91 H          -0.2127   -4.8232   -1.4042 H       1  UNL1        0.0000
     92 H           0.7233   -6.1041   -0.6017 H       1  UNL1        0.0000
     93 H           1.0956   -4.4131   -0.2758 H       1  UNL1        0.0000
     94 H          -0.6880   -5.5622    2.8420 H       1  UNL1        0.0000
     95 H           0.7525   -4.7092    2.2586 H       1  UNL1        0.0000
     96 H           0.5410   -6.4326    1.9059 H       1  UNL1        0.0000
     97 H           4.0328   -0.7826   -2.7597 H       1  UNL1        0.0000
     98 H           2.0242   -3.7630   -2.3181 H       1  UNL1        0.0000
     99 H           3.4120   -4.2963   -1.3364 H       1  UNL1        0.0000
    100 H           3.1556   -4.9566   -2.9575 H       1  UNL1        0.0000
    101 H           4.0558   -1.8423   -4.8509 H       1  UNL1        0.0000
    102 H           2.4005   -2.1647   -4.3028 H       1  UNL1        0.0000
    103 H           3.3757   -3.4729   -4.9923 H       1  UNL1        0.0000
    104 H           3.7366    4.8854    0.5764 H       1  UNL1        0.0000
    105 H          -1.5419    1.1417    4.1756 H       1  UNL1        0.0000
    106 H          -1.4763   -5.8780    0.5120 H       1  UNL1        0.0000
    107 H           4.9601   -3.2820   -3.0395 H       1  UNL1        0.0000
    108 O          -3.9724    3.7015    1.4765 O.2     1  UNL1        0.0000
    109 O          -3.5245   -0.8269    0.7885 O.2     1  UNL1        0.0000
    110 O          -3.9887   -3.5086    2.1970 O.2     1  UNL1        0.0000
    111 O          -2.2848   -4.0040   -2.0657 O.2     1  UNL1        0.0000
    112 O           2.3916    5.3548   -2.3270 O.2     1  UNL1        0.0000
    113 O          -0.1122    3.4970    1.0528 O.2     1  UNL1        0.0000
    114 O           5.4547   -3.6530   -0.3527 O.2     1  UNL1        0.0000
    115 O           5.1741    0.8133   -1.4320 O.2     1  UNL1        0.0000
    116 H           0.1517    7.1689   -3.2662 H       1  UNL1        0.0000
    117 H          -2.2362    7.8506   -2.9121 H       1  UNL1        0.0000
    118 H          -5.7027   -0.9426   -1.2815 H       1  UNL1        0.0000
    119 H          -7.4336    0.3615   -2.5297 H       1  UNL1        0.0000
    120 H          -6.8233   -3.1720    1.2308 H       1  UNL1        0.0000
    121 H           8.9305   -1.5645    2.9827 H       1  UNL1        0.0000
    122 H           7.5223   -3.2402    1.7545 H       1  UNL1        0.0000
@<TRIPOS>BOND
     1     1    11    1
     2     1     9    1
     3     2    12    1
     4     2    10    1
     5     2     1    1
     6     3     9    1
     7     3    55    1
     8     4    63    1
     9     4    13    1
    10     5    51    1
    11     5     7    1
    12     6    59    1
    13     6    11    1
    14     7     1    1
    15     8     2    1
    16     8     5    1
    17    10     3    1
    18    12     6    1
    19    13     1    1
    20    14     4    1
    21    14     2    1
    22    15    51    1
    23    15    26   am
    24    16    55    1
    25    17    59    1
    26    17    35   am
    27    18    50   am
    28    18    43   am
    29    19    15   am
    30    20    19    1
    31    20    25   ar
    32    21    22   ar
    33    21    20   ar
    34    22    23   ar
    35    23    67    1
    36    23    24   ar
    37    24    68    1
    38    25    24   ar
    39    25    26    1
    40    26   113    2
    41    27   109    2
    42    27    16   am
    43    28    33   ar
    44    28    27    1
    45    29    28   ar
    46    30    31   ar
    47    30    29   ar
    48    31    32   ar
    49    32    70    1
    50    32    33   ar
    51    33    34    1
    52    34    16   am
    53    34   108    2
    54    35   110    2
    55    36    37   ar
    56    36    35    1
    57    37   120    1
    58    38    71    1
    59    38    37   ar
    60    39    38   ar
    61    40    39   ar
    62    40    41   ar
    63    41    42    1
    64    41    36   ar
    65    42    17   am
    66    43   114    2
    67    43    44    1
    68    44    45   ar
    69    45   122    1
    70    45    46   ar
    71    46   121    1
    72    47    46   ar
    73    47    74    1
    74    48    47   ar
    75    49    44   ar
    76    49    48   ar
    77    50    49    1
    78    51    76    1
    79    51    52    1
    80    52    54    1
    81    52    53    1
    82    53    78    1
    83    53    77    1
    84    54    81    1
    85    54    82    1
    86    55    83    1
    87    55    56    1
    88    56    57    1
    89    56   105    1
    90    56    58    1
    91    57    85    1
    92    58    89    1
    93    59    90    1
    94    60    59    1
    95    60    62    1
    96    61    93    1
    97    61    60    1
    98    62    95    1
    99    62    94    1
   100    63    97    1
   101    63    18    1
   102    64    65    1
   103    64    63    1
   104    65    98    1
   105    65    99    1
   106    66   102    1
   107    66    64    1
   108    69    31    1
   109    72    39    1
   110    73    40    1
   111    75    48    1
   112    79    53    1
   113    80    54    1
   114    84    57    1
   115    86    57    1
   116    87    58    1
   117    88    58    1
   118    91    61    1
   119    92    61    1
   120    96    62    1
   121   100    65    1
   122   101    66    1
   123   103    66    1
   124   104    52    1
   125   106    60    1
   126   107    64    1
   127   111    42    2
   128   112    19    2
   129   115    50    2
   130   116    21    1
   131   117    22    1
   132   118    29    1
   133   119    30    1
