@<TRIPOS>MOLECULE
RhRh_pFPhMe2-O2C4_20kcal_7_sp
 94 101 0 0 0
SMALL
GASTEIGER

@<TRIPOS>ATOM
      1 Rh         -0.1105    0.0374   -1.1021 Rh      1  UNL1        0.0000
      2 Rh         -0.0114   -0.0449    1.2837 Rh      1  UNL1        0.0000
      3 C           1.2209   -2.2999   -0.0483 C.3     1  UNL1        0.0000
      4 C          -2.3489   -1.3043    0.1512 C.3     1  UNL1        0.0000
      5 C          -1.3225    2.3043    0.2153 C.3     1  UNL1        0.0000
      6 C           2.2614    1.2369    0.0348 C.3     1  UNL1        0.0000
      7 O          -1.9302   -0.9194   -0.9871 O.3     1  UNL1        0.0000
      8 O          -1.8290   -0.9991    1.2714 O.3     1  UNL1        0.0000
      9 O           0.8587   -1.7748   -1.1471 O.3     1  UNL1        0.0000
     10 O           0.9145   -1.8713    1.1118 O.3     1  UNL1        0.0000
     11 O           1.7136    0.9739   -1.0822 O.3     1  UNL1        0.0000
     12 O           1.8160    0.8921    1.1769 O.3     1  UNL1        0.0000
     13 O          -1.0568    1.8479   -0.9401 O.3     1  UNL1        0.0000
     14 O          -0.9501    1.7891    1.3198 O.3     1  UNL1        0.0000
     15 F           7.3176   -1.1616    0.5411 F       1  UNL1        0.0000
     16 F           1.5849    7.4102   -0.5934 F       1  UNL1        0.0000
     17 F          -7.4707    1.3838   -0.2273 F       1  UNL1        0.0000
     18 F          -0.9925   -7.2916   -0.8030 F       1  UNL1        0.0000
     19 C          -3.5233   -2.2931    0.1662 C.3     1  UNL1        0.0000
     20 C          -2.8580   -3.6638   -0.0805 C.ar    1  UNL1        0.0000
     21 C          -2.8114   -4.6572    0.9042 C.ar    1  UNL1        0.0000
     22 C          -2.1861   -5.8836    0.6710 C.ar    1  UNL1        0.0000
     23 C          -1.6019   -6.1107   -0.5663 C.ar    1  UNL1        0.0000
     24 C          -1.6227   -5.1481   -1.5688 C.ar    1  UNL1        0.0000
     25 C          -2.2414   -3.9279   -1.3140 C.ar    1  UNL1        0.0000
     26 C           2.1759   -3.5000   -0.1152 C.3     1  UNL1        0.0000
     27 C           3.5795   -2.8781    0.0442 C.ar    1  UNL1        0.0000
     28 C           4.5225   -2.8956   -0.9898 C.ar    1  UNL1        0.0000
     29 C           5.7849   -2.3202   -0.8325 C.ar    1  UNL1        0.0000
     30 C           6.0994   -1.7191    0.3773 C.ar    1  UNL1        0.0000
     31 C           5.1880   -1.6736    1.4257 C.ar    1  UNL1        0.0000
     32 C           3.9316   -2.2454    1.2473 C.ar    1  UNL1        0.0000
     33 C           3.5246    2.1052   -0.0083 C.3     1  UNL1        0.0000
     34 C           3.0074    3.5423   -0.2019 C.ar    1  UNL1        0.0000
     35 C           2.0912    4.0710    0.7216 C.ar    1  UNL1        0.0000
     36 C           1.6116    5.3723    0.5999 C.ar    1  UNL1        0.0000
     37 C           2.0493    6.1489   -0.4668 C.ar    1  UNL1        0.0000
     38 C           2.9466    5.6588   -1.4037 C.ar    1  UNL1        0.0000
     39 C           3.4191    4.3526   -1.2640 C.ar    1  UNL1        0.0000
     40 C          -2.2368    3.5347    0.2732 C.3     1  UNL1        0.0000
     41 C          -3.6596    2.9656    0.1104 C.ar    1  UNL1        0.0000
     42 C          -4.1280    2.0101    1.0265 C.ar    1  UNL1        0.0000
     43 C          -5.4107    1.4786    0.9235 C.ar    1  UNL1        0.0000
     44 C          -6.2281    1.8999   -0.1190 C.ar    1  UNL1        0.0000
     45 C          -5.7971    2.8337   -1.0491 C.ar    1  UNL1        0.0000
     46 C          -4.5102    3.3602   -0.9270 C.ar    1  UNL1        0.0000
     47 C           4.3061    2.0084    1.3152 C.3     1  UNL1        0.0000
     48 C           4.4154    1.6154   -1.1617 C.3     1  UNL1        0.0000
     49 C          -2.1092    4.2486    1.6318 C.3     1  UNL1        0.0000
     50 C          -1.8406    4.5034   -0.8522 C.3     1  UNL1        0.0000
     51 C          -4.2503   -2.2221    1.5155 C.3     1  UNL1        0.0000
     52 C          -4.5195   -1.9529   -0.9605 C.3     1  UNL1        0.0000
     53 C           2.0007   -4.2362   -1.4499 C.3     1  UNL1        0.0000
     54 C           1.8740   -4.4783    1.0385 C.3     1  UNL1        0.0000
     55 H          -3.2644   -4.4882    1.8727 H       1  UNL1        0.0000
     56 H          -2.1507   -6.6545    1.4324 H       1  UNL1        0.0000
     57 H          -1.1575   -5.3577   -2.5253 H       1  UNL1        0.0000
     58 H          -2.2263   -3.1630   -2.0802 H       1  UNL1        0.0000
     59 H           4.2850   -3.3620   -1.9372 H       1  UNL1        0.0000
     60 H           6.5173   -2.3358   -1.6317 H       1  UNL1        0.0000
     61 H           5.4654   -1.1963    2.3588 H       1  UNL1        0.0000
     62 H           3.2080   -2.1821    2.0506 H       1  UNL1        0.0000
     63 H           1.7359    3.4532    1.5397 H       1  UNL1        0.0000
     64 H           0.9114    5.7899    1.3144 H       1  UNL1        0.0000
     65 H           3.2639    6.2909   -2.2253 H       1  UNL1        0.0000
     66 H           4.1164    3.9732   -2.0006 H       1  UNL1        0.0000
     67 H          -3.4774    1.6642    1.8224 H       1  UNL1        0.0000
     68 H          -5.7847    0.7532    1.6367 H       1  UNL1        0.0000
     69 H          -6.4593    3.1377   -1.8518 H       1  UNL1        0.0000
     70 H          -4.1778    4.0861   -1.6584 H       1  UNL1        0.0000
     71 H           5.1787    2.6654    1.2648 H       1  UNL1        0.0000
     72 H           3.6954    2.3061    2.1678 H       1  UNL1        0.0000
     73 H           4.6476    0.9842    1.4799 H       1  UNL1        0.0000
     74 H           4.6973    0.5731   -0.9913 H       1  UNL1        0.0000
     75 H           3.8988    1.6736   -2.1206 H       1  UNL1        0.0000
     76 H           5.3334    2.2077   -1.2090 H       1  UNL1        0.0000
     77 H          -2.7871    5.1062    1.6536 H       1  UNL1        0.0000
     78 H          -2.3561    3.5879    2.4627 H       1  UNL1        0.0000
     79 H          -1.0873    4.6077    1.7790 H       1  UNL1        0.0000
     80 H          -1.9075    4.0293   -1.8318 H       1  UNL1        0.0000
     81 H          -2.4840    5.3876   -0.8339 H       1  UNL1        0.0000
     82 H          -0.8092    4.8336   -0.7080 H       1  UNL1        0.0000
     83 H          -5.0560   -2.9608    1.5467 H       1  UNL1        0.0000
     84 H          -3.5747   -2.3892    2.3545 H       1  UNL1        0.0000
     85 H          -4.6920   -1.2316    1.6384 H       1  UNL1        0.0000
     86 H          -5.3203   -2.6973   -0.9745 H       1  UNL1        0.0000
     87 H          -4.9618   -0.9677   -0.7871 H       1  UNL1        0.0000
     88 H          -4.0393   -1.9365   -1.9381 H       1  UNL1        0.0000
     89 H           2.7181   -5.0586   -1.5199 H       1  UNL1        0.0000
     90 H           0.9951   -4.6561   -1.5041 H       1  UNL1        0.0000
     91 H           2.1308   -3.5707   -2.3037 H       1  UNL1        0.0000
     92 H           2.5841   -5.3090    1.0049 H       1  UNL1        0.0000
     93 H           1.9458   -3.9952    2.0124 H       1  UNL1        0.0000
     94 H           0.8618   -4.8808    0.9356 H       1  UNL1        0.0000
@<TRIPOS>BOND
     1     1    11    1
     2     1     7    1
     3     1    13    1
     4     1     2    1
     5     2    14    1
     6     3    10    1
     7     4    19    1
     8     4     8    1
     9     5    40    1
    10     5    14    1
    11     6    12    1
    12     7     4    1
    13     8     2    1
    14     9     1    1
    15     9     3    1
    16    10     2    1
    17    11     6    1
    18    12     2    1
    19    13     5    1
    20    16    37    1
    21    17    44    1
    22    18    23    1
    23    19    51    1
    24    20    19    1
    25    20    21   ar
    26    21    55    1
    27    22    21   ar
    28    22    56    1
    29    23    22   ar
    30    24    25   ar
    31    24    23   ar
    32    25    20   ar
    33    26     3    1
    34    26    27    1
    35    26    54    1
    36    27    32   ar
    37    28    29   ar
    38    28    27   ar
    39    29    30   ar
    40    30    15    1
    41    30    31   ar
    42    31    61    1
    43    32    31   ar
    44    32    62    1
    45    33     6    1
    46    33    47    1
    47    34    33    1
    48    34    35   ar
    49    35    63    1
    50    36    35   ar
    51    36    64    1
    52    37    36   ar
    53    38    39   ar
    54    38    37   ar
    55    39    34   ar
    56    40    49    1
    57    41    40    1
    58    41    42   ar
    59    42    67    1
    60    43    42   ar
    61    43    68    1
    62    44    43   ar
    63    45    46   ar
    64    45    44   ar
    65    46    41   ar
    66    47    73    1
    67    47    72    1
    68    48    74    1
    69    48    33    1
    70    49    77    1
    71    49    79    1
    72    49    78    1
    73    50    81    1
    74    50    82    1
    75    50    40    1
    76    51    83    1
    77    51    85    1
    78    51    84    1
    79    52    87    1
    80    52    19    1
    81    53    26    1
    82    54    93    1
    83    57    24    1
    84    58    25    1
    85    59    28    1
    86    60    29    1
    87    65    38    1
    88    66    39    1
    89    69    45    1
    90    70    46    1
    91    71    47    1
    92    75    48    1
    93    76    48    1
    94    80    50    1
    95    86    52    1
    96    88    52    1
    97    89    53    1
    98    90    53    1
    99    91    53    1
   100    92    54    1
   101    94    54    1
