@<TRIPOS>MOLECULE
RhRh_ACyPropyl4_12
 102 117 0 0 0
SMALL
GASTEIGER

@<TRIPOS>ATOM
      1 Rh         -0.8286   -0.3914    0.9083 Rh      1  UNL1        0.0000
      2 Rh          0.5200   -0.4306   -1.0651 Rh      1  UNL1        0.0000
      3 C           1.3895    1.4543    0.8942 C.3     1  UNL1        0.0000
      4 C           1.5493   -1.9989    1.1313 C.3     1  UNL1        0.0000
      5 C          -1.6185   -2.3390   -1.0672 C.3     1  UNL1        0.0000
      6 C          -1.8317    1.2405   -1.2375 C.3     1  UNL1        0.0000
      7 O           0.4455   -1.7862    1.7313 O.3     1  UNL1        0.0000
      8 O           1.8744   -1.5680   -0.0178 O.3     1  UNL1        0.0000
      9 O          -1.9851   -1.8453    0.0477 O.3     1  UNL1        0.0000
     10 O          -0.5317   -2.0938   -1.6784 O.3     1  UNL1        0.0000
     11 O          -0.9126    0.7493   -1.9679 O.3     1  UNL1        0.0000
     12 O          -2.0265    0.9950   -0.0039 O.3     1  UNL1        0.0000
     13 O           1.5042    1.2173   -0.3510 O.3     1  UNL1        0.0000
     14 O           0.4471    1.0540    1.6509 O.3     1  UNL1        0.0000
     15 N           3.8914   -2.7251    1.3658 N.am    1  UNL1        0.0000
     16 N          -3.9077   -3.1565   -1.1906 N.am    1  UNL1        0.0000
     17 N          -3.6195    2.8902   -0.9542 N.am    1  UNL1        0.0000
     18 N           3.5602    2.5766    0.6450 N.am    1  UNL1        0.0000
     19 C           2.5517   -2.8628    1.8359 C.3     1  UNL1        0.0000
     20 C           2.3484   -3.1862    3.2988 C.3     1  UNL1        0.0000
     21 C           2.0777   -4.2417    2.2790 C.3     1  UNL1        0.0000
     22 C           4.8072   -1.7976    1.9066 C.2     1  UNL1        0.0000
     23 C           5.9831   -1.8243    0.9915 C.ar    1  UNL1        0.0000
     24 C           7.1642   -1.1025    1.0446 C.ar    1  UNL1        0.0000
     25 C           8.0759   -1.2802   -0.0025 C.ar    1  UNL1        0.0000
     26 C           7.7997   -2.1574   -1.0601 C.ar    1  UNL1        0.0000
     27 C           6.6041   -2.8850   -1.1004 C.ar    1  UNL1        0.0000
     28 C           5.7076   -2.6982   -0.0592 C.ar    1  UNL1        0.0000
     29 C           4.3568   -3.2908    0.1584 C.2     1  UNL1        0.0000
     30 C          -2.5850   -3.2847   -1.7118 C.3     1  UNL1        0.0000
     31 C          -2.4245   -3.5948   -3.1858 C.3     1  UNL1        0.0000
     32 C          -2.0930   -4.6430   -2.1754 C.3     1  UNL1        0.0000
     33 C          -4.5981   -1.9325   -1.3595 C.2     1  UNL1        0.0000
     34 C          -5.7432   -1.9819   -0.4115 C.ar    1  UNL1        0.0000
     35 C          -6.7543   -1.0599   -0.1812 C.ar    1  UNL1        0.0000
     36 C          -7.6945   -1.3801    0.8064 C.ar    1  UNL1        0.0000
     37 C          -7.6138   -2.5771    1.5290 C.ar    1  UNL1        0.0000
     38 C          -6.5833   -3.4951    1.2927 C.ar    1  UNL1        0.0000
     39 C          -5.6558   -3.1731    0.3142 C.ar    1  UNL1        0.0000
     40 C          -4.4420   -3.9173   -0.1299 C.2     1  UNL1        0.0000
     41 C          -2.7793    2.2016   -1.8826 C.3     1  UNL1        0.0000
     42 C          -3.3253    1.8540   -3.2546 C.3     1  UNL1        0.0000
     43 C          -2.3142    2.9422   -3.1248 C.3     1  UNL1        0.0000
     44 C          -4.9385    2.5357   -0.6197 C.2     1  UNL1        0.0000
     45 C          -5.2730    3.3358    0.5935 C.ar    1  UNL1        0.0000
     46 C          -6.4502    3.3927    1.3232 C.ar    1  UNL1        0.0000
     47 C          -6.4753    4.2364    2.4402 C.ar    1  UNL1        0.0000
     48 C          -5.3532    4.9939    2.7991 C.ar    1  UNL1        0.0000
     49 C          -4.1698    4.9314    2.0532 C.ar    1  UNL1        0.0000
     50 C          -4.1550    4.0901    0.9515 C.ar    1  UNL1        0.0000
     51 C          -3.0645    3.7964   -0.0191 C.2     1  UNL1        0.0000
     52 C           2.5130    2.1978    1.5386 C.3     1  UNL1        0.0000
     53 C           2.9255    1.7057    2.9258 C.3     1  UNL1        0.0000
     54 C           2.2624    3.0315    2.7765 C.3     1  UNL1        0.0000
     55 C           3.7438    3.8603    0.0881 C.2     1  UNL1        0.0000
     56 C           4.8438    3.7017   -0.9105 C.ar    1  UNL1        0.0000
     57 C           5.4612    4.6461   -1.7156 C.ar    1  UNL1        0.0000
     58 C           6.4804    4.1991   -2.5660 C.ar    1  UNL1        0.0000
     59 C           6.8605    2.8512   -2.5964 C.ar    1  UNL1        0.0000
     60 C           6.2312    1.9037   -1.7796 C.ar    1  UNL1        0.0000
     61 C           5.2207    2.3582   -0.9462 C.ar    1  UNL1        0.0000
     62 C           4.3749    1.6110    0.0211 C.2     1  UNL1        0.0000
     63 H           3.2513   -3.2477    3.8930 H       1  UNL1        0.0000
     64 H           1.5046   -2.7002    3.7724 H       1  UNL1        0.0000
     65 H           1.0474   -4.4875    2.0485 H       1  UNL1        0.0000
     66 H           2.7912   -5.0458    2.1433 H       1  UNL1        0.0000
     67 H           6.3748   -3.5644   -1.9142 H       1  UNL1        0.0000
     68 H          -3.3498   -3.6852   -3.7426 H       1  UNL1        0.0000
     69 H          -1.6122   -3.0852   -3.6889 H       1  UNL1        0.0000
     70 H          -1.0480   -4.8558   -1.9801 H       1  UNL1        0.0000
     71 H          -2.7742   -5.4689   -2.0141 H       1  UNL1        0.0000
     72 H          -6.7863   -0.1245   -0.7279 H       1  UNL1        0.0000
     73 H          -8.3585   -2.7916    2.2891 H       1  UNL1        0.0000
     74 H          -6.5007   -4.4204    1.8526 H       1  UNL1        0.0000
     75 H          -4.3654    2.1044   -3.4177 H       1  UNL1        0.0000
     76 H          -3.0180    0.8887   -3.6366 H       1  UNL1        0.0000
     77 H          -1.2941    2.7474   -3.4319 H       1  UNL1        0.0000
     78 H          -2.6444    3.9720   -3.1998 H       1  UNL1        0.0000
     79 H          -3.2930    5.5111    2.3205 H       1  UNL1        0.0000
     80 H           3.9939    1.6566    3.0975 H       1  UNL1        0.0000
     81 H           2.3566    0.8722    3.3170 H       1  UNL1        0.0000
     82 H           1.2222    3.1225    3.0666 H       1  UNL1        0.0000
     83 H           2.8513    3.9364    2.8584 H       1  UNL1        0.0000
     84 H           5.1588    5.6872   -1.6831 H       1  UNL1        0.0000
     85 H           7.6552    2.5388   -3.2665 H       1  UNL1        0.0000
     86 H           6.5155    0.8566   -1.7872 H       1  UNL1        0.0000
     87 O           3.1341    4.8627    0.3923 O.2     1  UNL1        0.0000
     88 O           4.3533    0.4217    0.2517 O.2     1  UNL1        0.0000
     89 O          -5.6493    1.7589   -1.2253 O.2     1  UNL1        0.0000
     90 O          -1.9275    4.2122   -0.0455 O.2     1  UNL1        0.0000
     91 O          -4.2573   -1.0565   -2.1260 O.2     1  UNL1        0.0000
     92 O          -3.9860   -4.9556    0.3005 O.2     1  UNL1        0.0000
     93 O           4.6423   -1.1487    2.9185 O.2     1  UNL1        0.0000
     94 O           3.7594   -4.1004   -0.5164 O.2     1  UNL1        0.0000
     95 H           7.3578   -0.4168    1.8621 H       1  UNL1        0.0000
     96 H           9.0112   -0.7291    0.0009 H       1  UNL1        0.0000
     97 H           8.5258   -2.2736   -1.8587 H       1  UNL1        0.0000
     98 H          -8.5009   -0.6854    1.0207 H       1  UNL1        0.0000
     99 H          -7.3115    2.7998    1.0348 H       1  UNL1        0.0000
    100 H          -7.3771    4.3056    3.0403 H       1  UNL1        0.0000
    101 H          -5.4037    5.6380    3.6712 H       1  UNL1        0.0000
    102 H           6.9862    4.9080   -3.2140 H       1  UNL1        0.0000
@<TRIPOS>BOND
     1     1    14    1
     2     1     7    1
     3     2    13    1
     4     2     8    1
     5     2     1    1
     6     3    52    1
     7     3    14    1
     8     4     7    1
     9     4    19    1
    10     5     9    1
    11     6    12    1
    12     8     4    1
    13     9     1    1
    14    10     5    1
    15    10     2    1
    16    11     6    1
    17    11     2    1
    18    12     1    1
    19    13     3    1
    20    15    19    1
    21    15    22   am
    22    16    40   am
    23    17    44   am
    24    17    51   am
    25    18    52    1
    26    19    21    1
    27    19    20    1
    28    20    64    1
    29    20    63    1
    30    21    20    1
    31    22    93    2
    32    23    24   ar
    33    23    22    1
    34    24    95    1
    35    25    96    1
    36    25    24   ar
    37    26    25   ar
    38    27    26   ar
    39    27    28   ar
    40    28    29    1
    41    28    23   ar
    42    29    15   am
    43    30    16    1
    44    30     5    1
    45    31    32    1
    46    31    30    1
    47    32    71    1
    48    32    70    1
    49    32    30    1
    50    33    16   am
    51    33    34    1
    52    34    35   ar
    53    34    39   ar
    54    35    36   ar
    55    36    98    1
    56    36    37   ar
    57    37    73    1
    58    38    37   ar
    59    38    74    1
    60    39    38   ar
    61    40    92    2
    62    40    39    1
    63    41     6    1
    64    41    17    1
    65    42    43    1
    66    42    41    1
    67    43    41    1
    68    44    45    1
    69    45    50   ar
    70    45    46   ar
    71    46    47   ar
    72    47    48   ar
    73    47   100    1
    74    48   101    1
    75    49    79    1
    76    49    48   ar
    77    50    49   ar
    78    51    50    1
    79    52    54    1
    80    52    53    1
    81    53    80    1
    82    53    81    1
    83    54    83    1
    84    54    53    1
    85    54    82    1
    86    55    87    2
    87    55    18   am
    88    56    55    1
    89    57    84    1
    90    57    56   ar
    91    58    57   ar
    92    59    58   ar
    93    59    60   ar
    94    60    61   ar
    95    61    56   ar
    96    61    62    1
    97    62    88    2
    98    62    18   am
    99    65    21    1
   100    66    21    1
   101    67    27    1
   102    68    31    1
   103    69    31    1
   104    72    35    1
   105    75    42    1
   106    76    42    1
   107    77    43    1
   108    78    43    1
   109    85    59    1
   110    86    60    1
   111    89    44    2
   112    90    51    2
   113    91    33    2
   114    94    29    2
   115    97    26    1
   116    99    46    1
   117   102    58    1
