@<TRIPOS>MOLECULE
RhRh_PhPhtol-O2C4_33_sp
 162 177 0 0 0
SMALL
GASTEIGER

@<TRIPOS>ATOM
      1 Rh          0.0003   -0.0697   -1.1549 Rh      1  UNL1        0.0000
      2 Rh          0.0614   -0.0742    1.2288 Rh      1  UNL1        0.0000
      3 C          -2.3719    1.0397    0.0511 C.3     1  UNL1        0.0000
      4 C           1.1016    2.3438    0.0654 C.3     1  UNL1        0.0000
      5 C           2.4477   -1.1213   -0.0454 C.3     1  UNL1        0.0000
      6 C          -1.0945   -2.4582    0.0661 C.3     1  UNL1        0.0000
      7 O           0.9133    1.7891   -1.0620 O.3     1  UNL1        0.0000
      8 O           0.9276    1.7787    1.1903 O.3     1  UNL1        0.0000
      9 O           1.8244   -1.0276   -1.1496 O.3     1  UNL1        0.0000
     10 O           1.9416   -0.8806    1.0943 O.3     1  UNL1        0.0000
     11 O          -0.9775   -1.8830   -1.0577 O.3     1  UNL1        0.0000
     12 O          -0.7728   -1.9405    1.1831 O.3     1  UNL1        0.0000
     13 O          -1.7997    0.8783   -1.0729 O.3     1  UNL1        0.0000
     14 O          -1.8391    0.7804    1.1732 O.3     1  UNL1        0.0000
     15 C           1.5767    3.8270    0.1090 C.3     1  UNL1        0.0000
     16 C           1.9807    4.2253   -1.3261 C.ar    1  UNL1        0.0000
     17 C           3.2852    4.5553   -1.6928 C.ar    1  UNL1        0.0000
     18 C           3.5825    4.9470   -3.0012 C.ar    1  UNL1        0.0000
     19 C           2.5793    5.0075   -3.9646 C.ar    1  UNL1        0.0000
     20 C           1.2698    4.6721   -3.6086 C.ar    1  UNL1        0.0000
     21 C           0.9779    4.2862   -2.3051 C.ar    1  UNL1        0.0000
     22 C           0.4016    4.7286    0.5955 C.ar    1  UNL1        0.0000
     23 C          -0.6730    4.1794    1.3095 C.ar    1  UNL1        0.0000
     24 C          -1.7387    4.9539    1.7641 C.ar    1  UNL1        0.0000
     25 C          -1.7493    6.3194    1.5136 C.ar    1  UNL1        0.0000
     26 C          -0.6701    6.8887    0.8437 C.ar    1  UNL1        0.0000
     27 C           0.4188    6.1329    0.3881 C.ar    1  UNL1        0.0000
     28 C           2.7514    3.8616    1.1087 C.ar    1  UNL1        0.0000
     29 C           2.7866    4.7264    2.2039 C.ar    1  UNL1        0.0000
     30 C           3.8721    4.7139    3.0841 C.ar    1  UNL1        0.0000
     31 C           4.9349    3.8354    2.8859 C.ar    1  UNL1        0.0000
     32 C           4.9041    2.9590    1.7989 C.ar    1  UNL1        0.0000
     33 C           3.8188    2.9710    0.9279 C.ar    1  UNL1        0.0000
     34 C           3.9393   -1.5712   -0.1013 C.3     1  UNL1        0.0000
     35 C           4.3762   -1.8228    1.3588 C.ar    1  UNL1        0.0000
     36 C           4.6565   -3.0884    1.8742 C.ar    1  UNL1        0.0000
     37 C           5.0510   -3.2438    3.2061 C.ar    1  UNL1        0.0000
     38 C           5.1687   -2.1359    4.0413 C.ar    1  UNL1        0.0000
     39 C           4.8847   -0.8647    3.5343 C.ar    1  UNL1        0.0000
     40 C           4.4910   -0.7141    2.2097 C.ar    1  UNL1        0.0000
     41 C           4.8087   -0.4453   -0.7326 C.ar    1  UNL1        0.0000
     42 C           6.2184   -0.4296   -0.5655 C.ar    1  UNL1        0.0000
     43 C           6.9511    0.6011   -1.1705 C.ar    1  UNL1        0.0000
     44 C           6.3533    1.5861   -1.9518 C.ar    1  UNL1        0.0000
     45 C           4.9807    1.5374   -2.1582 C.ar    1  UNL1        0.0000
     46 C           4.2275    0.5337   -1.5505 C.ar    1  UNL1        0.0000
     47 C           3.9728   -2.8371   -0.9805 C.ar    1  UNL1        0.0000
     48 C           3.0978   -3.8889   -0.6812 C.ar    1  UNL1        0.0000
     49 C           3.0944   -5.0614   -1.4310 C.ar    1  UNL1        0.0000
     50 C           3.9648   -5.1969   -2.5137 C.ar    1  UNL1        0.0000
     51 C           4.8269   -4.1501   -2.8330 C.ar    1  UNL1        0.0000
     52 C           4.8300   -2.9772   -2.0745 C.ar    1  UNL1        0.0000
     53 C          -1.6806   -3.8950    0.1284 C.3     1  UNL1        0.0000
     54 C          -0.5560   -4.8913    0.5212 C.ar    1  UNL1        0.0000
     55 C           0.3979   -4.5774    1.4994 C.ar    1  UNL1        0.0000
     56 C           1.3414   -5.5201    1.9078 C.ar    1  UNL1        0.0000
     57 C           1.3399   -6.8034    1.3627 C.ar    1  UNL1        0.0000
     58 C           0.3805   -7.1336    0.4056 C.ar    1  UNL1        0.0000
     59 C          -0.5557   -6.1870   -0.0114 C.ar    1  UNL1        0.0000
     60 C          -2.7336   -3.8779    1.2636 C.ar    1  UNL1        0.0000
     61 C          -2.8695   -4.9446    2.1551 C.ar    1  UNL1        0.0000
     62 C          -3.8377   -4.9144    3.1612 C.ar    1  UNL1        0.0000
     63 C          -4.6816   -3.8146    3.2927 C.ar    1  UNL1        0.0000
     64 C          -4.5627   -2.7509    2.3965 C.ar    1  UNL1        0.0000
     65 C          -3.6042   -2.7866    1.3882 C.ar    1  UNL1        0.0000
     66 C          -2.3105   -4.2749   -1.2327 C.ar    1  UNL1        0.0000
     67 C          -1.5509   -4.3385   -2.4260 C.ar    1  UNL1        0.0000
     68 C          -2.2029   -4.6947   -3.6141 C.ar    1  UNL1        0.0000
     69 C          -3.5585   -5.0074   -3.6559 C.ar    1  UNL1        0.0000
     70 C          -4.2941   -4.9770   -2.4758 C.ar    1  UNL1        0.0000
     71 C          -3.6693   -4.6110   -1.2858 C.ar    1  UNL1        0.0000
     72 C          -3.8530    1.5321   -0.0111 C.3     1  UNL1        0.0000
     73 C          -4.6383    0.2597   -0.4527 C.ar    1  UNL1        0.0000
     74 C          -5.7288   -0.2313    0.2728 C.ar    1  UNL1        0.0000
     75 C          -6.4343   -1.3526   -0.1647 C.ar    1  UNL1        0.0000
     76 C          -6.0545   -2.0141   -1.3290 C.ar    1  UNL1        0.0000
     77 C          -4.9736   -1.5304   -2.0662 C.ar    1  UNL1        0.0000
     78 C          -4.2816   -0.4004   -1.6391 C.ar    1  UNL1        0.0000
     79 C          -4.3077    2.0341    1.3728 C.ar    1  UNL1        0.0000
     80 C          -4.1995    1.2088    2.5061 C.ar    1  UNL1        0.0000
     81 C          -4.6177    1.6510    3.7575 C.ar    1  UNL1        0.0000
     82 C          -5.1626    2.9281    3.9099 C.ar    1  UNL1        0.0000
     83 C          -5.2869    3.7504    2.7942 C.ar    1  UNL1        0.0000
     84 C          -4.8614    3.3073    1.5388 C.ar    1  UNL1        0.0000
     85 C          -3.9555    2.6686   -1.0600 C.ar    1  UNL1        0.0000
     86 C          -5.1448    2.9898   -1.7541 C.ar    1  UNL1        0.0000
     87 C          -5.1330    4.0979   -2.6166 C.ar    1  UNL1        0.0000
     88 C          -4.0150    4.9088   -2.7798 C.ar    1  UNL1        0.0000
     89 C          -2.8619    4.6205   -2.0562 C.ar    1  UNL1        0.0000
     90 C          -2.8457    3.5104   -1.2195 C.ar    1  UNL1        0.0000
     91 C           1.5559    6.8989   -0.2523 C.3     1  UNL1        0.0000
     92 C           7.0117   -1.4781    0.1838 C.3     1  UNL1        0.0000
     93 C          -0.0652   -4.0785   -2.5293 C.3     1  UNL1        0.0000
     94 C          -6.4625    2.2663   -1.5921 C.3     1  UNL1        0.0000
     95 H           4.0785    4.5298   -0.9571 H       1  UNL1        0.0000
     96 H           4.6041    5.2103   -3.2588 H       1  UNL1        0.0000
     97 H           2.8101    5.3143   -4.9801 H       1  UNL1        0.0000
     98 H           0.4738    4.7120   -4.3460 H       1  UNL1        0.0000
     99 H          -0.0399    4.0272   -2.0433 H       1  UNL1        0.0000
    100 H          -0.6931    3.1234    1.5300 H       1  UNL1        0.0000
    101 H          -2.5522    4.4770    2.2981 H       1  UNL1        0.0000
    102 H          -2.5745    6.9405    1.8484 H       1  UNL1        0.0000
    103 H          -0.6531    7.9619    0.6749 H       1  UNL1        0.0000
    104 H           1.9620    5.4052    2.3830 H       1  UNL1        0.0000
    105 H           3.8783    5.3945    3.9302 H       1  UNL1        0.0000
    106 H           5.7773    3.8303    3.5709 H       1  UNL1        0.0000
    107 H           5.7193    2.2643    1.6218 H       1  UNL1        0.0000
    108 H           3.8093    2.2828    0.0927 H       1  UNL1        0.0000
    109 H           4.5927   -3.9615    1.2376 H       1  UNL1        0.0000
    110 H           5.2757   -4.2374    3.5826 H       1  UNL1        0.0000
    111 H           5.4792   -2.2577    5.0746 H       1  UNL1        0.0000
    112 H           4.9673    0.0125    4.1691 H       1  UNL1        0.0000
    113 H           4.2659    0.2756    1.8324 H       1  UNL1        0.0000
    114 H           8.0289    0.6109   -1.0326 H       1  UNL1        0.0000
    115 H           6.9578    2.3655   -2.4057 H       1  UNL1        0.0000
    116 H           4.4801    2.2790   -2.7700 H       1  UNL1        0.0000
    117 H           3.1635    0.5254   -1.7294 H       1  UNL1        0.0000
    118 H           2.4117   -3.7961    0.1513 H       1  UNL1        0.0000
    119 H           2.4061   -5.8566   -1.1673 H       1  UNL1        0.0000
    120 H           3.9652   -6.1072   -3.1055 H       1  UNL1        0.0000
    121 H           5.5015   -4.2378   -3.6794 H       1  UNL1        0.0000
    122 H           5.4966   -2.1689   -2.3472 H       1  UNL1        0.0000
    123 H           0.4049   -3.5928    1.9464 H       1  UNL1        0.0000
    124 H           2.0830   -5.2381    2.6490 H       1  UNL1        0.0000
    125 H           2.0744   -7.5369    1.6803 H       1  UNL1        0.0000
    126 H           0.3569   -8.1311   -0.0230 H       1  UNL1        0.0000
    127 H          -1.2948   -6.4595   -0.7545 H       1  UNL1        0.0000
    128 H          -2.2158   -5.8039    2.0744 H       1  UNL1        0.0000
    129 H          -3.9223   -5.7535    3.8451 H       1  UNL1        0.0000
    130 H          -5.4275   -3.7857    4.0812 H       1  UNL1        0.0000
    131 H          -5.2190   -1.8916    2.4737 H       1  UNL1        0.0000
    132 H          -3.5444   -1.9610    0.6884 H       1  UNL1        0.0000
    133 H          -1.6155   -4.7367   -4.5280 H       1  UNL1        0.0000
    134 H          -4.0265   -5.2847   -4.5959 H       1  UNL1        0.0000
    135 H          -5.3491   -5.2333   -2.4724 H       1  UNL1        0.0000
    136 H          -4.2579   -4.5813   -0.3797 H       1  UNL1        0.0000
    137 H          -6.0488    0.2720    1.1755 H       1  UNL1        0.0000
    138 H          -7.2769   -1.7115    0.4182 H       1  UNL1        0.0000
    139 H          -6.5875   -2.9000   -1.6584 H       1  UNL1        0.0000
    140 H          -4.6560   -2.0436   -2.9672 H       1  UNL1        0.0000
    141 H          -3.4551   -0.0278   -2.2275 H       1  UNL1        0.0000
    142 H          -3.7845    0.2146    2.4102 H       1  UNL1        0.0000
    143 H          -4.5169    0.9935    4.6156 H       1  UNL1        0.0000
    144 H          -5.4880    3.2727    4.8867 H       1  UNL1        0.0000
    145 H          -5.7115    4.7451    2.8915 H       1  UNL1        0.0000
    146 H          -4.9521    3.9696    0.6877 H       1  UNL1        0.0000
    147 H          -6.0457    4.3353   -3.1559 H       1  UNL1        0.0000
    148 H          -4.0539    5.7644   -3.4472 H       1  UNL1        0.0000
    149 H          -1.9840    5.2549   -2.1221 H       1  UNL1        0.0000
    150 H          -1.9435    3.3136   -0.6611 H       1  UNL1        0.0000
    151 H           2.5309    6.5487    0.0898 H       1  UNL1        0.0000
    152 H           1.5480    6.8180   -1.3423 H       1  UNL1        0.0000
    153 H           1.4714    7.9576    0.0070 H       1  UNL1        0.0000
    154 H           6.6542   -2.4880   -0.0218 H       1  UNL1        0.0000
    155 H           8.0606   -1.4258   -0.1200 H       1  UNL1        0.0000
    156 H           6.9660   -1.3351    1.2665 H       1  UNL1        0.0000
    157 H           0.4325   -3.9617   -1.5735 H       1  UNL1        0.0000
    158 H           0.4249   -4.9073   -3.0505 H       1  UNL1        0.0000
    159 H           0.1275   -3.1668   -3.1024 H       1  UNL1        0.0000
    160 H          -6.4496    1.2674   -2.0345 H       1  UNL1        0.0000
    161 H          -6.7318    2.1487   -0.5401 H       1  UNL1        0.0000
    162 H          -7.2567    2.8399   -2.0769 H       1  UNL1        0.0000
@<TRIPOS>BOND
     1     1     9    1
     2     1    13    1
     3     1     7    1
     4     1    11    1
     5     1     2    1
     6     3    14    1
     7     4    15    1
     8     4     8    1
     9     5    10    1
    10     6    53    1
    11     6    12    1
    12     7     4    1
    13     8     2    1
    14     9     5    1
    15    10     2    1
    16    11     6    1
    17    12     2    1
    18    13     3    1
    19    14     2    1
    20    15    22    1
    21    15    28    1
    22    16    15    1
    23    17    16   ar
    24    17    95    1
    25    18    17   ar
    26    19    20   ar
    27    19    18   ar
    28    20    21   ar
    29    21    99    1
    30    21    16   ar
    31    22    23   ar
    32    23   100    1
    33    23    24   ar
    34    24   101    1
    35    25    24   ar
    36    25   102    1
    37    26    25   ar
    38    27    22   ar
    39    27    26   ar
    40    28    29   ar
    41    29   104    1
    42    29    30   ar
    43    30   105    1
    44    31    30   ar
    45    31   106    1
    46    32    31   ar
    47    33    28   ar
    48    33    32   ar
    49    34     5    1
    50    34    35    1
    51    35    36   ar
    52    35    40   ar
    53    36    37   ar
    54    37   110    1
    55    37    38   ar
    56    38   111    1
    57    39    38   ar
    58    39   112    1
    59    40    39   ar
    60    41    42   ar
    61    41    34    1
    62    42    92    1
    63    43   114    1
    64    43    42   ar
    65    44    43   ar
    66    45    44   ar
    67    45    46   ar
    68    46    41   ar
    69    47    48   ar
    70    47    34    1
    71    48   118    1
    72    49   119    1
    73    49    48   ar
    74    50    49   ar
    75    51    50   ar
    76    51    52   ar
    77    52    47   ar
    78    53    54    1
    79    53    60    1
    80    54    55   ar
    81    55    56   ar
    82    55   123    1
    83    56   124    1
    84    57   125    1
    85    57    56   ar
    86    58    57   ar
    87    59    58   ar
    88    59    54   ar
    89    60    65   ar
    90    60    61   ar
    91    61    62   ar
    92    62    63   ar
    93    62   129    1
    94    63   130    1
    95    64   131    1
    96    64    63   ar
    97    65    64   ar
    98    66    53    1
    99    67    66   ar
   100    68    67   ar
   101    69    68   ar
   102    69    70   ar
   103    70   135    1
   104    70    71   ar
   105    71    66   ar
   106    71   136    1
   107    72     3    1
   108    72    79    1
   109    73    72    1
   110    73    74   ar
   111    74   137    1
   112    75    74   ar
   113    75   138    1
   114    76    75   ar
   115    77    78   ar
   116    77    76   ar
   117    78    73   ar
   118    79    84   ar
   119    79    80   ar
   120    80    81   ar
   121    81    82   ar
   122    81   143    1
   123    82   144    1
   124    83   145    1
   125    83    82   ar
   126    84    83   ar
   127    85    72    1
   128    86    94    1
   129    86    85   ar
   130    87    86   ar
   131    88    87   ar
   132    88    89   ar
   133    89    90   ar
   134    90    85   ar
   135    90   150    1
   136    91   153    1
   137    91   151    1
   138    91    27    1
   139    92   156    1
   140    93    67    1
   141    93   157    1
   142    94   161    1
   143    96    18    1
   144    97    19    1
   145    98    20    1
   146   103    26    1
   147   107    32    1
   148   108    33    1
   149   109    36    1
   150   113    40    1
   151   115    44    1
   152   116    45    1
   153   117    46    1
   154   120    50    1
   155   121    51    1
   156   122    52    1
   157   126    58    1
   158   127    59    1
   159   128    61    1
   160   132    65    1
   161   133    68    1
   162   134    69    1
   163   139    76    1
   164   140    77    1
   165   141    78    1
   166   142    80    1
   167   146    84    1
   168   147    87    1
   169   148    88    1
   170   149    89    1
   171   152    91    1
   172   154    92    1
   173   155    92    1
   174   158    93    1
   175   159    93    1
   176   160    94    1
   177   162    94    1
