@<TRIPOS>MOLECULE
RhRh_anthracenyl-O2C4_6_sp
 106 121 0 0 0
SMALL
GASTEIGER

@<TRIPOS>ATOM
      1 Rh          0.0103    0.2368   -1.1727 Rh      1  UNL1        0.0000
      2 Rh         -0.0103   -0.2369    1.1727 Rh      1  UNL1        0.0000
      3 C          -1.8700   -1.8103   -0.4125 C.3     1  UNL1        0.0000
      4 C           2.0327   -1.6495   -0.3218 C.3     1  UNL1        0.0000
      5 C           1.8700    1.8102    0.4124 C.3     1  UNL1        0.0000
      6 C          -2.0328    1.6494    0.3218 C.3     1  UNL1        0.0000
      7 O          -1.5430    1.1209    1.3709 O.3     1  UNL1        0.0000
      8 O          -1.5502    1.5329   -0.8559 O.3     1  UNL1        0.0000
      9 O          -1.4333   -1.6733    0.7793 O.3     1  UNL1        0.0000
     10 O          -1.4093   -1.2245   -1.4424 O.3     1  UNL1        0.0000
     11 O           1.5430   -1.1209   -1.3709 O.3     1  UNL1        0.0000
     12 O           1.5500   -1.5331    0.8558 O.3     1  UNL1        0.0000
     13 O           1.4331    1.6733   -0.7793 O.3     1  UNL1        0.0000
     14 O           1.4094    1.2243    1.4423 O.3     1  UNL1        0.0000
     15 C          -3.2947    2.4302    0.4517 C.ar    1  UNL1        0.0000
     16 C          -3.3672    3.7294   -0.1009 C.ar    1  UNL1        0.0000
     17 C          -4.6133    4.4508   -0.0178 C.ar    1  UNL1        0.0000
     18 C          -5.7280    3.8281    0.5499 C.ar    1  UNL1        0.0000
     19 C          -5.6707    2.5314    1.0667 C.ar    1  UNL1        0.0000
     20 C          -6.8361    1.8934    1.5923 C.ar    1  UNL1        0.0000
     21 C          -5.5444   -0.0869    2.0834 C.ar    1  UNL1        0.0000
     22 C          -6.7795    0.6176    2.0814 C.ar    1  UNL1        0.0000
     23 C          -4.4026    0.4883    1.5941 C.ar    1  UNL1        0.0000
     24 C          -4.4174    1.8149    1.0551 C.ar    1  UNL1        0.0000
     25 C          -3.0566   -2.6997   -0.5746 C.ar    1  UNL1        0.0000
     26 C          -2.9425   -4.0652   -0.2503 C.ar    1  UNL1        0.0000
     27 C          -4.1258   -4.8881   -0.2737 C.ar    1  UNL1        0.0000
     28 C          -5.3580   -4.3027   -0.5805 C.ar    1  UNL1        0.0000
     29 C          -5.4726   -2.9491   -0.9127 C.ar    1  UNL1        0.0000
     30 C          -6.7382   -2.3549   -1.2062 C.ar    1  UNL1        0.0000
     31 C          -6.8354   -1.0293   -1.5321 C.ar    1  UNL1        0.0000
     32 C          -5.6654   -0.2237   -1.6020 C.ar    1  UNL1        0.0000
     33 C          -4.4330   -0.7507   -1.3239 C.ar    1  UNL1        0.0000
     34 C          -4.2889   -2.1237   -0.9501 C.ar    1  UNL1        0.0000
     35 C           3.2948   -2.4302   -0.4517 C.ar    1  UNL1        0.0000
     36 C           4.4174   -1.8147   -1.0551 C.ar    1  UNL1        0.0000
     37 C           5.6708   -2.5311   -1.0667 C.ar    1  UNL1        0.0000
     38 C           5.7281   -3.8279   -0.5498 C.ar    1  UNL1        0.0000
     39 C           4.6135   -4.4506    0.0179 C.ar    1  UNL1        0.0000
     40 C           4.6880   -5.7793    0.5375 C.ar    1  UNL1        0.0000
     41 C           2.3722   -5.6570    1.2141 C.ar    1  UNL1        0.0000
     42 C           3.5999   -6.3704    1.1183 C.ar    1  UNL1        0.0000
     43 C           2.2569   -4.3836    0.7229 C.ar    1  UNL1        0.0000
     44 C           3.3673   -3.7293    0.1009 C.ar    1  UNL1        0.0000
     45 C           3.0565    2.6997    0.5746 C.ar    1  UNL1        0.0000
     46 C           4.2888    2.1236    0.9501 C.ar    1  UNL1        0.0000
     47 C           5.4726    2.9491    0.9126 C.ar    1  UNL1        0.0000
     48 C           5.3580    4.3026    0.5804 C.ar    1  UNL1        0.0000
     49 C           4.1258    4.8880    0.2737 C.ar    1  UNL1        0.0000
     50 C           4.0046    6.2790   -0.0286 C.ar    1  UNL1        0.0000
     51 C           2.7878    6.8327   -0.3211 C.ar    1  UNL1        0.0000
     52 C           1.6165    6.0227   -0.3310 C.ar    1  UNL1        0.0000
     53 C           1.6918    4.6825   -0.0625 C.ar    1  UNL1        0.0000
     54 C           2.9424    4.0651    0.2502 C.ar    1  UNL1        0.0000
     55 C          -1.6166   -6.0228    0.3310 C.ar    1  UNL1        0.0000
     56 C           4.4329    0.7506    1.3239 C.ar    1  UNL1        0.0000
     57 C           6.7382    2.3549    1.2062 C.ar    1  UNL1        0.0000
     58 C           6.8354    1.0293    1.5322 C.ar    1  UNL1        0.0000
     59 C           5.6654    0.2237    1.6020 C.ar    1  UNL1        0.0000
     60 C           4.4026   -0.4881   -1.5941 C.ar    1  UNL1        0.0000
     61 C           6.8361   -1.8931   -1.5922 C.ar    1  UNL1        0.0000
     62 C           5.5443    0.0871   -2.0833 C.ar    1  UNL1        0.0000
     63 C           6.7795   -0.6173   -2.0812 C.ar    1  UNL1        0.0000
     64 C          -4.6877    5.7794   -0.5374 C.ar    1  UNL1        0.0000
     65 C          -3.5996    6.3705   -1.1183 C.ar    1  UNL1        0.0000
     66 C          -2.3719    5.6570   -1.2141 C.ar    1  UNL1        0.0000
     67 C          -2.2567    4.3835   -0.7229 C.ar    1  UNL1        0.0000
     68 C          -2.7879   -6.8328    0.3211 C.ar    1  UNL1        0.0000
     69 C          -1.6919   -4.6826    0.0625 C.ar    1  UNL1        0.0000
     70 C          -4.0047   -6.2791    0.0285 C.ar    1  UNL1        0.0000
     71 H          -6.6723    4.3660    0.5814 H       1  UNL1        0.0000
     72 H          -7.7707    2.4471    1.5862 H       1  UNL1        0.0000
     73 H          -5.5080   -1.1025    2.4639 H       1  UNL1        0.0000
     74 H          -7.6729    0.1381    2.4686 H       1  UNL1        0.0000
     75 H          -3.4793   -0.0731    1.6014 H       1  UNL1        0.0000
     76 H          -6.2536   -4.9188   -0.5639 H       1  UNL1        0.0000
     77 H          -7.6235   -2.9830   -1.1620 H       1  UNL1        0.0000
     78 H          -7.8037   -0.5874   -1.7444 H       1  UNL1        0.0000
     79 H          -5.7517    0.8260   -1.8627 H       1  UNL1        0.0000
     80 H          -3.5541   -0.1232   -1.3902 H       1  UNL1        0.0000
     81 H           6.6725   -4.3656   -0.5813 H       1  UNL1        0.0000
     82 H           5.6337   -6.3082    0.4613 H       1  UNL1        0.0000
     83 H           1.5176   -6.1250    1.6932 H       1  UNL1        0.0000
     84 H           3.6679   -7.3796    1.5120 H       1  UNL1        0.0000
     85 H           1.3222   -3.8494    0.8273 H       1  UNL1        0.0000
     86 H           6.2535    4.9187    0.5638 H       1  UNL1        0.0000
     87 H           4.9028    6.8897   -0.0122 H       1  UNL1        0.0000
     88 H           2.7078    7.8926   -0.5412 H       1  UNL1        0.0000
     89 H           0.6525    6.4748   -0.5422 H       1  UNL1        0.0000
     90 H           0.7930    4.0780   -0.0684 H       1  UNL1        0.0000
     91 H          -0.6526   -6.4749    0.5422 H       1  UNL1        0.0000
     92 H          -3.6675    7.3797   -1.5120 H       1  UNL1        0.0000
     93 H          -1.5174    6.1249   -1.6933 H       1  UNL1        0.0000
     94 H          -1.3221    3.8493   -0.8274 H       1  UNL1        0.0000
     95 H          -5.6334    6.3084   -0.4612 H       1  UNL1        0.0000
     96 H           7.6234    2.9830    1.1620 H       1  UNL1        0.0000
     97 H           3.5541    0.1231    1.3903 H       1  UNL1        0.0000
     98 H          -2.7079   -7.8927    0.5411 H       1  UNL1        0.0000
     99 H          -0.7931   -4.0780    0.0685 H       1  UNL1        0.0000
    100 H          -4.9029   -6.8898    0.0121 H       1  UNL1        0.0000
    101 H           7.7708   -2.4467   -1.5861 H       1  UNL1        0.0000
    102 H           7.6728   -0.1377   -2.4685 H       1  UNL1        0.0000
    103 H           7.8037    0.5875    1.7444 H       1  UNL1        0.0000
    104 H           5.7518   -0.8260    1.8628 H       1  UNL1        0.0000
    105 H           5.5079    1.1028   -2.4638 H       1  UNL1        0.0000
    106 H           3.4792    0.0732   -1.6013 H       1  UNL1        0.0000
@<TRIPOS>BOND
     1     1     8    1
     2     1    13    1
     3     1     2    1
     4     2     7    1
     5     2    14    1
     6     3     9    1
     7     4    12    1
     8     5    45    1
     9     5    14    1
    10     6    15    1
    11     6     7    1
    12     8     6    1
    13     9     2    1
    14    10     1    1
    15    10     3    1
    16    11     1    1
    17    11     4    1
    18    12     2    1
    19    13     5    1
    20    15    24   ar
    21    16    17   ar
    22    16    15   ar
    23    17    18   ar
    24    18    71    1
    25    18    19   ar
    26    19    20   ar
    27    20    22   ar
    28    21    73    1
    29    22    21   ar
    30    22    74    1
    31    23    75    1
    32    23    21   ar
    33    24    19   ar
    34    24    23   ar
    35    25     3    1
    36    25    26   ar
    37    26    69   ar
    38    27    26   ar
    39    27    70   ar
    40    28    76    1
    41    28    27   ar
    42    29    28   ar
    43    30    77    1
    44    30    29   ar
    45    31    30   ar
    46    32    31   ar
    47    32    33   ar
    48    33    34   ar
    49    34    29   ar
    50    34    25   ar
    51    35     4    1
    52    35    44   ar
    53    36    35   ar
    54    37    36   ar
    55    37    38   ar
    56    38    39   ar
    57    39    44   ar
    58    39    40   ar
    59    40    42   ar
    60    41    83    1
    61    42    41   ar
    62    42    84    1
    63    43    85    1
    64    43    41   ar
    65    44    43   ar
    66    45    46   ar
    67    46    56   ar
    68    47    46   ar
    69    47    57   ar
    70    48    47   ar
    71    49    48   ar
    72    50    87    1
    73    50    49   ar
    74    51    50   ar
    75    52    51   ar
    76    52    53   ar
    77    53    54   ar
    78    54    49   ar
    79    54    45   ar
    80    55    91    1
    81    56    97    1
    82    56    59   ar
    83    57    58   ar
    84    58    59   ar
    85    58   103    1
    86    59   104    1
    87    60    36   ar
    88    61   101    1
    89    61    37   ar
    90    62    63   ar
    91    62    60   ar
    92    63    61   ar
    93    64    95    1
    94    64    17   ar
    95    65    64   ar
    96    66    65   ar
    97    66    67   ar
    98    67    16   ar
    99    68    55   ar
   100    68    98    1
   101    69    99    1
   102    69    55   ar
   103    70    68   ar
   104    72    20    1
   105    78    31    1
   106    79    32    1
   107    80    33    1
   108    81    38    1
   109    82    40    1
   110    86    48    1
   111    88    51    1
   112    89    52    1
   113    90    53    1
   114    92    65    1
   115    93    66    1
   116    94    67    1
   117    96    57    1
   118   100    70    1
   119   102    63    1
   120   105    62    1
   121   106    60    1
