@<TRIPOS>MOLECULE
RhRh_ACB4_10_sp
 114 129 0 0 0
SMALL
GASTEIGER

@<TRIPOS>ATOM
      1 Rh          0.7524   -0.0226    0.9401 Rh      1  UNL1        0.0000
      2 Rh         -0.6716    0.0202   -0.9832 Rh      1  UNL1        0.0000
      3 C           0.7407    2.4788   -0.5106 C.3     1  UNL1        0.0000
      4 C          -0.6904   -2.4712    0.4820 C.3     1  UNL1        0.0000
      5 C           2.0220   -0.8900   -1.5001 C.3     1  UNL1        0.0000
      6 C          -1.9483    0.8451    1.4702 C.3     1  UNL1        0.0000
      7 O          -0.8509    0.6137    2.0632 O.3     1  UNL1        0.0000
      8 O          -2.1992    0.6326    0.2416 O.3     1  UNL1        0.0000
      9 O           0.1862   -1.9777    1.2546 O.3     1  UNL1        0.0000
     10 O          -1.1514   -1.9296   -0.5727 O.3     1  UNL1        0.0000
     11 O           2.2728   -0.6665   -0.2732 O.3     1  UNL1        0.0000
     12 O           0.9396   -0.6196   -2.1033 O.3     1  UNL1        0.0000
     13 O           1.2364    1.9222    0.5216 O.3     1  UNL1        0.0000
     14 O          -0.1357    1.9842   -1.2815 O.3     1  UNL1        0.0000
     15 N          -4.0504    2.0500    1.4311 N.am    1  UNL1        0.0000
     16 N          -2.6461   -3.8674    0.3654 N.am    1  UNL1        0.0000
     17 N           4.0252   -2.2321   -1.3716 N.am    1  UNL1        0.0000
     18 N           2.6541    3.9345   -0.3972 N.am    1  UNL1        0.0000
     19 C          -3.0709    1.4290    2.3210 C.3     1  UNL1        0.0000
     20 C          -2.6507    2.3897    3.4760 C.3     1  UNL1        0.0000
     21 C          -3.6439    1.6642    4.4141 C.3     1  UNL1        0.0000
     22 C          -3.6587    0.4826    3.4185 C.3     1  UNL1        0.0000
     23 C          -5.2828    1.5374    0.9888 C.2     1  UNL1        0.0000
     24 C          -5.7022    2.4082   -0.1480 C.ar    1  UNL1        0.0000
     25 C          -6.8485    2.3605   -0.9250 C.ar    1  UNL1        0.0000
     26 C          -6.9663    3.3031   -1.9541 C.ar    1  UNL1        0.0000
     27 C          -5.9634    4.2537   -2.1832 C.ar    1  UNL1        0.0000
     28 C          -4.8096    4.2929   -1.3905 C.ar    1  UNL1        0.0000
     29 C          -4.7049    3.3544   -0.3758 C.ar    1  UNL1        0.0000
     30 C          -3.6194    3.1149    0.6083 C.2     1  UNL1        0.0000
     31 C          -1.2714   -3.8420    0.8367 C.3     1  UNL1        0.0000
     32 C          -1.0214   -4.2365    2.3167 C.3     1  UNL1        0.0000
     33 C           0.2391   -5.0140    1.8610 C.3     1  UNL1        0.0000
     34 C          -0.3259   -5.0135    0.4201 C.3     1  UNL1        0.0000
     35 C          -3.5537   -2.9131    0.8643 C.2     1  UNL1        0.0000
     36 C          -4.7433   -2.9636   -0.0248 C.ar    1  UNL1        0.0000
     37 C          -5.9371   -2.2599    0.0312 C.ar    1  UNL1        0.0000
     38 C          -6.8672   -2.5039   -0.9874 C.ar    1  UNL1        0.0000
     39 C          -6.5987   -3.4161   -2.0155 C.ar    1  UNL1        0.0000
     40 C          -5.3853   -4.1139   -2.0638 C.ar    1  UNL1        0.0000
     41 C          -4.4703   -3.8678   -1.0526 C.ar    1  UNL1        0.0000
     42 C          -3.0958   -4.4145   -0.8553 C.2     1  UNL1        0.0000
     43 C           3.1284   -1.5733   -2.3079 C.3     1  UNL1        0.0000
     44 C           3.7590   -0.6413   -3.3910 C.3     1  UNL1        0.0000
     45 C           2.8070   -1.2700   -4.4387 C.3     1  UNL1        0.0000
     46 C           2.5661   -2.4492   -3.4644 C.3     1  UNL1        0.0000
     47 C           5.1999   -1.6823   -0.8288 C.2     1  UNL1        0.0000
     48 C           5.5418   -2.5375    0.3453 C.ar    1  UNL1        0.0000
     49 C           6.6155   -2.4636    1.2183 C.ar    1  UNL1        0.0000
     50 C           6.6583   -3.3933    2.2650 C.ar    1  UNL1        0.0000
     51 C           5.6536   -4.3569    2.4189 C.ar    1  UNL1        0.0000
     52 C           4.5729   -4.4232    1.5306 C.ar    1  UNL1        0.0000
     53 C           4.5420   -3.4981    0.4988 C.ar    1  UNL1        0.0000
     54 C           3.5334   -3.2815   -0.5711 C.2     1  UNL1        0.0000
     55 C           1.2560    3.8797   -0.8247 C.3     1  UNL1        0.0000
     56 C           0.3562    5.0643   -0.3418 C.3     1  UNL1        0.0000
     57 C           0.6066    5.7675   -1.6967 C.3     1  UNL1        0.0000
     58 C           1.0659    4.4071   -2.2742 C.3     1  UNL1        0.0000
     59 C           3.1825    4.4514    0.8073 C.2     1  UNL1        0.0000
     60 C           4.5613    3.8890    0.9136 C.ar    1  UNL1        0.0000
     61 C           5.5304    4.0971    1.8820 C.ar    1  UNL1        0.0000
     62 C           6.7282    3.3818    1.7543 C.ar    1  UNL1        0.0000
     63 C           6.9289    2.4883    0.6945 C.ar    1  UNL1        0.0000
     64 C           5.9449    2.2848   -0.2811 C.ar    1  UNL1        0.0000
     65 C           4.7697    3.0086   -0.1477 C.ar    1  UNL1        0.0000
     66 C           3.5381    2.9966   -0.9721 C.2     1  UNL1        0.0000
     67 H          -1.6102    2.2031    3.7428 H       1  UNL1        0.0000
     68 H          -2.7903    3.4522    3.2790 H       1  UNL1        0.0000
     69 H          -4.6120    2.1712    4.4579 H       1  UNL1        0.0000
     70 H          -3.3093    1.4560    5.4328 H       1  UNL1        0.0000
     71 H          -4.5947   -0.0111    3.1810 H       1  UNL1        0.0000
     72 H          -2.9052   -0.2685    3.6568 H       1  UNL1        0.0000
     73 H          -6.0835    4.9687   -2.9907 H       1  UNL1        0.0000
     74 H          -4.0235    5.0208   -1.5593 H       1  UNL1        0.0000
     75 H          -0.9058   -3.4140    3.0208 H       1  UNL1        0.0000
     76 H          -1.8179   -4.9052    2.6513 H       1  UNL1        0.0000
     77 H           1.1394   -4.4013    1.9374 H       1  UNL1        0.0000
     78 H           0.4199   -5.9881    2.3217 H       1  UNL1        0.0000
     79 H          -0.9193   -5.9012    0.2049 H       1  UNL1        0.0000
     80 H           0.3565   -4.8231   -0.4056 H       1  UNL1        0.0000
     81 H          -7.8132   -1.9713   -0.9830 H       1  UNL1        0.0000
     82 H          -7.3412   -3.5787   -2.7906 H       1  UNL1        0.0000
     83 H          -5.1576   -4.8142   -2.8601 H       1  UNL1        0.0000
     84 H           3.7081    0.4277   -3.1924 H       1  UNL1        0.0000
     85 H           4.7981   -0.9276   -3.5532 H       1  UNL1        0.0000
     86 H           1.9037   -0.6746   -4.5799 H       1  UNL1        0.0000
     87 H           3.2385   -1.5107   -5.4129 H       1  UNL1        0.0000
     88 H           3.2440   -3.2856   -3.6484 H       1  UNL1        0.0000
     89 H           1.5508   -2.8206   -3.3340 H       1  UNL1        0.0000
     90 H           7.3825   -1.7071    1.0927 H       1  UNL1        0.0000
     91 H           7.4805   -3.3658    2.9730 H       1  UNL1        0.0000
     92 H           5.7137   -5.0601    3.2434 H       1  UNL1        0.0000
     93 H           3.7843   -5.1595    1.6419 H       1  UNL1        0.0000
     94 H          -0.6714    4.7110   -0.2443 H       1  UNL1        0.0000
     95 H           0.6656    5.5575    0.5749 H       1  UNL1        0.0000
     96 H          -0.2492    6.2508   -2.1742 H       1  UNL1        0.0000
     97 H           1.4283    6.4866   -1.6360 H       1  UNL1        0.0000
     98 H           1.9519    4.3747   -2.9079 H       1  UNL1        0.0000
     99 H           0.2550    3.8604   -2.7565 H       1  UNL1        0.0000
    100 H           5.3547    4.7795    2.7064 H       1  UNL1        0.0000
    101 H           6.0752    1.5695   -1.0834 H       1  UNL1        0.0000
    102 O          -2.4799   -5.1665   -1.5809 O.2     1  UNL1        0.0000
    103 O          -3.3327   -2.1960    1.8221 O.2     1  UNL1        0.0000
    104 O           5.8069   -0.7154   -1.2451 O.2     1  UNL1        0.0000
    105 O           2.4746   -3.8493   -0.7513 O.2     1  UNL1        0.0000
    106 O           3.2649    2.3127   -1.9410 O.2     1  UNL1        0.0000
    107 O           2.6340    5.1989    1.5901 O.2     1  UNL1        0.0000
    108 O          -2.5495    3.6801    0.7176 O.2     1  UNL1        0.0000
    109 O          -5.8984    0.5938    1.4462 O.2     1  UNL1        0.0000
    110 H          -7.6148    1.6158   -0.7394 H       1  UNL1        0.0000
    111 H          -7.8470    3.2973   -2.5883 H       1  UNL1        0.0000
    112 H          -6.1250   -1.5350    0.8139 H       1  UNL1        0.0000
    113 H           7.5113    3.5137    2.4945 H       1  UNL1        0.0000
    114 H           7.8619    1.9371    0.6318 H       1  UNL1        0.0000
@<TRIPOS>BOND
     1     1     9    1
     2     1     7    1
     3     2    10    1
     4     2     8    1
     5     2     1    1
     6     3    13    1
     7     4    31    1
     8     4     9    1
     9     5    11    1
    10     6     7    1
    11     6    19    1
    12     8     6    1
    13    10     4    1
    14    11     1    1
    15    12     5    1
    16    12     2    1
    17    13     1    1
    18    14     2    1
    19    14     3    1
    20    15    19    1
    21    16    31    1
    22    16    35   am
    23    17    47   am
    24    17    54   am
    25    18    59   am
    26    19    22    1
    27    19    20    1
    28    20    67    1
    29    20    21    1
    30    21    69    1
    31    21    70    1
    32    22    72    1
    33    22    21    1
    34    23    15   am
    35    23   109    2
    36    24    23    1
    37    25   110    1
    38    25    24   ar
    39    26    25   ar
    40    27    26   ar
    41    27    28   ar
    42    28    29   ar
    43    29    24   ar
    44    29    30    1
    45    30   108    2
    46    30    15   am
    47    31    32    1
    48    32    76    1
    49    32    75    1
    50    33    77    1
    51    33    32    1
    52    33    78    1
    53    34    31    1
    54    34    33    1
    55    35   103    2
    56    36    37   ar
    57    36    35    1
    58    37   112    1
    59    38    81    1
    60    38    37   ar
    61    39    38   ar
    62    40    39   ar
    63    40    41   ar
    64    41    42    1
    65    41    36   ar
    66    42    16   am
    67    43     5    1
    68    43    17    1
    69    44    84    1
    70    44    43    1
    71    45    46    1
    72    45    44    1
    73    46    89    1
    74    46    43    1
    75    47    48    1
    76    48    53   ar
    77    48    49   ar
    78    49    50   ar
    79    50    51   ar
    80    50    91    1
    81    51    92    1
    82    52    93    1
    83    52    51   ar
    84    53    52   ar
    85    54    53    1
    86    55     3    1
    87    55    18    1
    88    55    56    1
    89    56    94    1
    90    56    95    1
    91    57    97    1
    92    57    56    1
    93    58    57    1
    94    58    55    1
    95    59    60    1
    96    59   107    2
    97    60    61   ar
    98    61   100    1
    99    62    61   ar
   100    62   113    1
   101    63    62   ar
   102    64    65   ar
   103    64    63   ar
   104    65    60   ar
   105    66    18   am
   106    66    65    1
   107    68    20    1
   108    71    22    1
   109    73    27    1
   110    74    28    1
   111    79    34    1
   112    80    34    1
   113    82    39    1
   114    83    40    1
   115    85    44    1
   116    86    45    1
   117    87    45    1
   118    88    46    1
   119    90    49    1
   120    96    57    1
   121    98    58    1
   122    99    58    1
   123   101    64    1
   124   102    42    2
   125   104    47    2
   126   105    54    2
   127   106    66    2
   128   111    26    1
   129   114    63    1
