@<TRIPOS>MOLECULE
RhRh_triPh-O2C4_10_sp
 150 165 0 0 0
SMALL
GASTEIGER

@<TRIPOS>ATOM
      1 Rh          0.0104   -0.0016    1.1887 Rh      1  UNL1        0.0000
      2 Rh          0.0204   -0.0031   -1.1983 Rh      1  UNL1        0.0000
      3 C          -1.7204   -1.9839   -0.0294 C.3     1  UNL1        0.0000
      4 C           2.0037   -1.7292    0.0269 C.3     1  UNL1        0.0000
      5 C           1.7750    1.9583   -0.0248 C.3     1  UNL1        0.0000
      6 C          -1.9736    1.7282    0.0103 C.3     1  UNL1        0.0000
      7 O           1.5683   -1.3195    1.1478 O.3     1  UNL1        0.0000
      8 O           1.5858   -1.3372   -1.1054 O.3     1  UNL1        0.0000
      9 O           1.3705    1.5485    1.1065 O.3     1  UNL1        0.0000
     10 O           1.3498    1.5415   -1.1476 O.3     1  UNL1        0.0000
     11 O          -1.5452    1.3130    1.1334 O.3     1  UNL1        0.0000
     12 O          -1.5450    1.3448   -1.1211 O.3     1  UNL1        0.0000
     13 O          -1.3368   -1.5585    1.1022 O.3     1  UNL1        0.0000
     14 O          -1.2831   -1.5722   -1.1501 O.3     1  UNL1        0.0000
     15 C           3.0909   -2.8313    0.0817 C.3     1  UNL1        0.0000
     16 C           2.3148   -4.1552    0.3389 C.ar    1  UNL1        0.0000
     17 C           2.5907   -5.3212   -0.3845 C.ar    1  UNL1        0.0000
     18 C           1.9103   -6.5095   -0.1086 C.ar    1  UNL1        0.0000
     19 C           0.9427   -6.5536    0.8927 C.ar    1  UNL1        0.0000
     20 C           0.6769   -5.4038    1.6360 C.ar    1  UNL1        0.0000
     21 C           1.3606   -4.2205    1.3671 C.ar    1  UNL1        0.0000
     22 C           3.8660   -2.8612   -1.2501 C.ar    1  UNL1        0.0000
     23 C           5.2441   -2.6330   -1.2992 C.ar    1  UNL1        0.0000
     24 C           5.9330   -2.6570   -2.5156 C.ar    1  UNL1        0.0000
     25 C           5.2535   -2.9077   -3.7041 C.ar    1  UNL1        0.0000
     26 C           3.8773   -3.1450   -3.6668 C.ar    1  UNL1        0.0000
     27 C           3.1934   -3.1252   -2.4558 C.ar    1  UNL1        0.0000
     28 C           4.0385   -2.5445    1.2613 C.ar    1  UNL1        0.0000
     29 C           4.6330   -3.5982    1.9606 C.ar    1  UNL1        0.0000
     30 C           5.5611   -3.3488    2.9726 C.ar    1  UNL1        0.0000
     31 C           5.9069   -2.0395    3.3022 C.ar    1  UNL1        0.0000
     32 C           5.3232   -0.9795    2.6066 C.ar    1  UNL1        0.0000
     33 C           4.4027   -1.2320    1.5928 C.ar    1  UNL1        0.0000
     34 C           2.8639    3.0574   -0.0821 C.3     1  UNL1        0.0000
     35 C           3.5939    3.1073    1.2744 C.ar    1  UNL1        0.0000
     36 C           4.9447    2.7761    1.4022 C.ar    1  UNL1        0.0000
     37 C           5.5759    2.8178    2.6497 C.ar    1  UNL1        0.0000
     38 C           4.8644    3.1878    3.7871 C.ar    1  UNL1        0.0000
     39 C           3.5140    3.5277    3.6687 C.ar    1  UNL1        0.0000
     40 C           2.8896    3.4906    2.4272 C.ar    1  UNL1        0.0000
     41 C           2.1532    4.4019   -0.3882 C.ar    1  UNL1        0.0000
     42 C           2.6580    5.5974    0.1386 C.ar    1  UNL1        0.0000
     43 C           2.0920    6.8253   -0.2043 C.ar    1  UNL1        0.0000
     44 C           1.0034    6.8803   -1.0725 C.ar    1  UNL1        0.0000
     45 C           0.4917    5.6966   -1.5999 C.ar    1  UNL1        0.0000
     46 C           1.0645    4.4709   -1.2687 C.ar    1  UNL1        0.0000
     47 C           3.8431    2.7075   -1.2231 C.ar    1  UNL1        0.0000
     48 C           4.2009    1.3747   -1.4736 C.ar    1  UNL1        0.0000
     49 C           5.1411    1.0528   -2.4484 C.ar    1  UNL1        0.0000
     50 C           5.7507    2.0658   -3.1907 C.ar    1  UNL1        0.0000
     51 C           5.4089    3.3941   -2.9464 C.ar    1  UNL1        0.0000
     52 C           4.4619    3.7121   -1.9709 C.ar    1  UNL1        0.0000
     53 C          -3.0850    2.8043    0.0873 C.3     1  UNL1        0.0000
     54 C          -2.4116    4.1546    0.4514 C.ar    1  UNL1        0.0000
     55 C          -1.2930    4.2314    1.2927 C.ar    1  UNL1        0.0000
     56 C          -0.7734    5.4667    1.6756 C.ar    1  UNL1        0.0000
     57 C          -1.3647    6.6492    1.2384 C.ar    1  UNL1        0.0000
     58 C          -2.4811    6.5855    0.4064 C.ar    1  UNL1        0.0000
     59 C          -2.9957    5.3509    0.0134 C.ar    1  UNL1        0.0000
     60 C          -3.8019    2.9215   -1.2701 C.ar    1  UNL1        0.0000
     61 C          -5.1738    2.7035   -1.4074 C.ar    1  UNL1        0.0000
     62 C          -5.7986    2.8402   -2.6509 C.ar    1  UNL1        0.0000
     63 C          -5.0591    3.1951   -3.7750 C.ar    1  UNL1        0.0000
     64 C          -3.6871    3.4303   -3.6453 C.ar    1  UNL1        0.0000
     65 C          -3.0695    3.3026   -2.4063 C.ar    1  UNL1        0.0000
     66 C          -4.0528    2.3675    1.2073 C.ar    1  UNL1        0.0000
     67 C          -4.4941    1.0365    1.2526 C.ar    1  UNL1        0.0000
     68 C          -5.3863    0.6125    2.2325 C.ar    1  UNL1        0.0000
     69 C          -5.8605    1.5164    3.1861 C.ar    1  UNL1        0.0000
     70 C          -5.4355    2.8418    3.1427 C.ar    1  UNL1        0.0000
     71 C          -4.5367    3.2650    2.1599 C.ar    1  UNL1        0.0000
     72 C          -2.8408   -3.0539   -0.0982 C.3     1  UNL1        0.0000
     73 C          -2.4752   -4.0592   -1.2064 C.ar    1  UNL1        0.0000
     74 C          -3.4609   -4.6242   -2.0187 C.ar    1  UNL1        0.0000
     75 C          -3.1297   -5.5873   -2.9738 C.ar    1  UNL1        0.0000
     76 C          -1.8073   -5.9984   -3.1286 C.ar    1  UNL1        0.0000
     77 C          -0.8170   -5.4456   -2.3144 C.ar    1  UNL1        0.0000
     78 C          -1.1497   -4.4880   -1.3601 C.ar    1  UNL1        0.0000
     79 C          -2.9794   -3.7552    1.2653 C.ar    1  UNL1        0.0000
     80 C          -3.2832   -3.0059    2.4152 C.ar    1  UNL1        0.0000
     81 C          -3.4094   -3.6218    3.6560 C.ar    1  UNL1        0.0000
     82 C          -3.2427   -5.0039    3.7778 C.ar    1  UNL1        0.0000
     83 C          -2.9587   -5.7579    2.6429 C.ar    1  UNL1        0.0000
     84 C          -2.8288   -5.1377    1.3968 C.ar    1  UNL1        0.0000
     85 C          -4.1393   -2.2878   -0.4824 C.ar    1  UNL1        0.0000
     86 C          -5.3532   -2.5412    0.1672 C.ar    1  UNL1        0.0000
     87 C          -6.5199   -1.8738   -0.2123 C.ar    1  UNL1        0.0000
     88 C          -6.4960   -0.9427   -1.2481 C.ar    1  UNL1        0.0000
     89 C          -5.2986   -0.7037   -1.9219 C.ar    1  UNL1        0.0000
     90 C          -4.1363   -1.3743   -1.5491 C.ar    1  UNL1        0.0000
     91 H           3.3404   -5.3076   -1.1653 H       1  UNL1        0.0000
     92 H           2.1399   -7.3999   -0.6861 H       1  UNL1        0.0000
     93 H           0.4027   -7.4736    1.0938 H       1  UNL1        0.0000
     94 H          -0.0753   -5.4175    2.4170 H       1  UNL1        0.0000
     95 H           1.1486   -3.3397    1.9579 H       1  UNL1        0.0000
     96 H           5.7911   -2.4334   -0.3871 H       1  UNL1        0.0000
     97 H           7.0039   -2.4779   -2.5243 H       1  UNL1        0.0000
     98 H           5.7869   -2.9236   -4.6497 H       1  UNL1        0.0000
     99 H           3.3332   -3.3472   -4.5843 H       1  UNL1        0.0000
    100 H           2.1278   -3.3155   -2.4436 H       1  UNL1        0.0000
    101 H           4.3692   -4.6204    1.7150 H       1  UNL1        0.0000
    102 H           6.0085   -4.1827    3.5050 H       1  UNL1        0.0000
    103 H           6.6223   -1.8452    4.0955 H       1  UNL1        0.0000
    104 H           5.5710    0.0481    2.8514 H       1  UNL1        0.0000
    105 H           3.9604   -0.3904    1.0737 H       1  UNL1        0.0000
    106 H           5.5151    2.4858    0.5293 H       1  UNL1        0.0000
    107 H           6.6293    2.5635    2.7218 H       1  UNL1        0.0000
    108 H           5.3539    3.2187    4.7556 H       1  UNL1        0.0000
    109 H           2.9467    3.8234    4.5461 H       1  UNL1        0.0000
    110 H           1.8434    3.7580    2.3440 H       1  UNL1        0.0000
    111 H           2.5051    7.7385    0.2137 H       1  UNL1        0.0000
    112 H           0.5521    7.8338   -1.3277 H       1  UNL1        0.0000
    113 H          -0.3684    5.7213   -2.2613 H       1  UNL1        0.0000
    114 H           0.6636    3.5646   -1.7022 H       1  UNL1        0.0000
    115 H           3.7338    0.5684   -0.9218 H       1  UNL1        0.0000
    116 H           6.4820    1.8193   -3.9546 H       1  UNL1        0.0000
    117 H           5.8736    4.1919   -3.5182 H       1  UNL1        0.0000
    118 H           4.2020    4.7494   -1.7979 H       1  UNL1        0.0000
    119 H          -0.8255    3.3277    1.6580 H       1  UNL1        0.0000
    120 H           0.1081    5.5015    2.3074 H       1  UNL1        0.0000
    121 H          -0.9529    7.6090    1.5333 H       1  UNL1        0.0000
    122 H          -2.9557    7.4974    0.0566 H       1  UNL1        0.0000
    123 H          -3.8660    5.3162   -0.6308 H       1  UNL1        0.0000
    124 H          -5.7640    2.4199   -0.5459 H       1  UNL1        0.0000
    125 H          -6.8675    2.6661   -2.7319 H       1  UNL1        0.0000
    126 H          -5.5431    3.2978   -4.7415 H       1  UNL1        0.0000
    127 H          -3.0989    3.7194   -4.5110 H       1  UNL1        0.0000
    128 H          -2.0090    3.5012   -2.3118 H       1  UNL1        0.0000
    129 H          -4.1460    0.3238    0.5142 H       1  UNL1        0.0000
    130 H          -5.7106   -0.4224    2.2405 H       1  UNL1        0.0000
    131 H          -6.5550    1.1881    3.9535 H       1  UNL1        0.0000
    132 H          -5.7969    3.5553    3.8773 H       1  UNL1        0.0000
    133 H          -4.2088    4.2970    2.1452 H       1  UNL1        0.0000
    134 H          -4.4924   -4.3104   -1.9092 H       1  UNL1        0.0000
    135 H          -3.9104   -6.0118   -3.5979 H       1  UNL1        0.0000
    136 H          -1.5493   -6.7437   -3.8750 H       1  UNL1        0.0000
    137 H          -0.3680   -4.0827   -0.7295 H       1  UNL1        0.0000
    138 H          -3.4216   -1.9348    2.3370 H       1  UNL1        0.0000
    139 H          -3.6402   -3.0202    4.5300 H       1  UNL1        0.0000
    140 H          -3.3409   -5.4843    4.7465 H       1  UNL1        0.0000
    141 H          -2.8362   -6.8344    2.7176 H       1  UNL1        0.0000
    142 H          -2.6007   -5.7401    0.5273 H       1  UNL1        0.0000
    143 H          -5.3932   -3.2614    0.9742 H       1  UNL1        0.0000
    144 H          -7.4470   -2.0837    0.3127 H       1  UNL1        0.0000
    145 H          -7.3997   -0.4115   -1.5303 H       1  UNL1        0.0000
    146 H          -3.2185   -1.1830   -2.0869 H       1  UNL1        0.0000
    147 H           5.3863    0.0111   -2.6257 H       1  UNL1        0.0000
    148 H          -5.2595    0.0189   -2.7294 H       1  UNL1        0.0000
    149 H           0.2168   -5.7602   -2.4090 H       1  UNL1        0.0000
    150 H           3.5041    5.5699    0.8146 H       1  UNL1        0.0000
@<TRIPOS>BOND
     1     2    14    1
     2     2    10    1
     3     2    12    1
     4     2     8    1
     5     2     1    1
     6     3    13    1
     7     4    15    1
     8     4     7    1
     9     5     9    1
    10     6    53    1
    11     6    11    1
    12     7     1    1
    13     8     4    1
    14     9     1    1
    15    10     5    1
    16    11     1    1
    17    12     6    1
    18    13     1    1
    19    14     3    1
    20    15    16    1
    21    15    28    1
    22    16    21   ar
    23    17    18   ar
    24    17    16   ar
    25    18    19   ar
    26    19    93    1
    27    19    20   ar
    28    20    94    1
    29    21    20   ar
    30    21    95    1
    31    22    15    1
    32    23    22   ar
    33    23    96    1
    34    24    23   ar
    35    25    26   ar
    36    25    24   ar
    37    26    27   ar
    38    27   100    1
    39    27    22   ar
    40    28    33   ar
    41    28    29   ar
    42    29    30   ar
    43    30    31   ar
    44    30   102    1
    45    31   103    1
    46    32   104    1
    47    32    31   ar
    48    33    32   ar
    49    34     5    1
    50    34    35    1
    51    35    36   ar
    52    35    40   ar
    53    36    37   ar
    54    37   107    1
    55    37    38   ar
    56    38   108    1
    57    39    38   ar
    58    39   109    1
    59    40    39   ar
    60    41    34    1
    61    41    42   ar
    62    42   150    1
    63    43    42   ar
    64    43   111    1
    65    44    43   ar
    66    45    46   ar
    67    45    44   ar
    68    46    41   ar
    69    47    34    1
    70    48    47   ar
    71    48   115    1
    72    49    48   ar
    73    50    51   ar
    74    50    49   ar
    75    51    52   ar
    76    52   118    1
    77    52    47   ar
    78    53    54    1
    79    53    66    1
    80    54    55   ar
    81    55   119    1
    82    55    56   ar
    83    56   120    1
    84    57   121    1
    85    57    56   ar
    86    58    57   ar
    87    59    58   ar
    88    59    54   ar
    89    60    53    1
    90    61    60   ar
    91    61   124    1
    92    62    61   ar
    93    63    64   ar
    94    63    62   ar
    95    64    65   ar
    96    65   128    1
    97    65    60   ar
    98    66    67   ar
    99    66    71   ar
   100    67    68   ar
   101    68   130    1
   102    68    69   ar
   103    69   131    1
   104    70    69   ar
   105    70   132    1
   106    71    70   ar
   107    72     3    1
   108    72    79    1
   109    73    72    1
   110    74   134    1
   111    74    73   ar
   112    75    74   ar
   113    76    75   ar
   114    76    77   ar
   115    77    78   ar
   116    78    73   ar
   117    78   137    1
   118    79    84   ar
   119    79    80   ar
   120    80    81   ar
   121    81    82   ar
   122    81   139    1
   123    82   140    1
   124    83   141    1
   125    83    82   ar
   126    84    83   ar
   127    85    72    1
   128    85    86   ar
   129    86   143    1
   130    87    86   ar
   131    87   144    1
   132    88    87   ar
   133    89    90   ar
   134    89    88   ar
   135    90    85   ar
   136    91    17    1
   137    92    18    1
   138    97    24    1
   139    98    25    1
   140    99    26    1
   141   101    29    1
   142   105    33    1
   143   106    36    1
   144   110    40    1
   145   112    44    1
   146   113    45    1
   147   114    46    1
   148   116    50    1
   149   117    51    1
   150   122    58    1
   151   123    59    1
   152   125    62    1
   153   126    63    1
   154   127    64    1
   155   129    67    1
   156   133    71    1
   157   135    75    1
   158   136    76    1
   159   138    80    1
   160   142    84    1
   161   145    88    1
   162   146    90    1
   163   147    49    1
   164   148    89    1
   165   149    77    1
