@<TRIPOS>MOLECULE
RhRh_ACyPentyl4_22_sp
 126 141 0 0 0
SMALL
GASTEIGER

@<TRIPOS>ATOM
      1 Rh         -0.4192   -0.1252    0.2711 Rh      1  UNL1        0.0000
      2 Rh          0.2062    0.0723   -2.0278 Rh      1  UNL1        0.0000
      3 C          -1.9344    1.8359   -1.1861 C.3     1  UNL1        0.0000
      4 C           1.5768    1.8741   -0.2362 C.3     1  UNL1        0.0000
      5 C           1.7422   -1.8631   -0.5537 C.3     1  UNL1        0.0000
      6 C          -1.8081   -1.9224   -1.5005 C.3     1  UNL1        0.0000
      7 O          -1.9225    1.2259   -0.0703 O.3     1  UNL1        0.0000
      8 O          -1.2135    1.5655   -2.1936 O.3     1  UNL1        0.0000
      9 O          -1.6481   -1.6678   -0.2653 O.3     1  UNL1        0.0000
     10 O          -1.1924   -1.3801   -2.4672 O.3     1  UNL1        0.0000
     11 O           1.5845   -1.4109   -1.7332 O.3     1  UNL1        0.0000
     12 O           1.1249   -1.4744    0.4811 O.3     1  UNL1        0.0000
     13 O           1.5913    1.4747   -1.4453 O.3     1  UNL1        0.0000
     14 O           0.7977    1.4715    0.6776 O.3     1  UNL1        0.0000
     15 N          -3.1111    3.5406    0.0489 N.am    1  UNL1        0.0000
     16 N          -3.9466   -2.8236   -0.8963 N.am    1  UNL1        0.0000
     17 N           2.8109   -3.3930    1.0012 N.am    1  UNL1        0.0000
     18 N           3.9129    2.5252   -0.1728 N.am    1  UNL1        0.0000
     19 C          -2.9139    3.0165   -1.3113 C.3     1  UNL1        0.0000
     20 C          -4.2204    2.5574   -2.0086 C.3     1  UNL1        0.0000
     21 C          -3.8332    2.4970   -3.4909 C.3     1  UNL1        0.0000
     22 C          -2.8247    3.6539   -3.7018 C.3     1  UNL1        0.0000
     23 C          -2.3767    4.0962   -2.2873 C.3     1  UNL1        0.0000
     24 C          -2.0024    4.0425    0.7651 C.2     1  UNL1        0.0000
     25 C          -2.4249    4.1538    2.1832 C.ar    1  UNL1        0.0000
     26 C          -1.7361    4.6248    3.2903 C.ar    1  UNL1        0.0000
     27 C          -2.3957    4.5714    4.5241 C.ar    1  UNL1        0.0000
     28 C          -3.6967    4.0617    4.6275 C.ar    1  UNL1        0.0000
     29 C          -4.3804    3.5881    3.5011 C.ar    1  UNL1        0.0000
     30 C          -3.7174    3.6459    2.2853 C.ar    1  UNL1        0.0000
     31 C          -4.1583    3.1986    0.9333 C.2     1  UNL1        0.0000
     32 C          -2.8168   -3.0428   -1.8087 C.3     1  UNL1        0.0000
     33 C          -3.2397   -3.0554   -3.2938 C.3     1  UNL1        0.0000
     34 C          -2.1444   -3.8626   -4.0359 C.3     1  UNL1        0.0000
     35 C          -1.2486   -4.4826   -2.9320 C.3     1  UNL1        0.0000
     36 C          -2.0783   -4.3953   -1.6425 C.3     1  UNL1        0.0000
     37 C          -4.5146   -1.5355   -0.8437 C.2     1  UNL1        0.0000
     38 C          -5.3578   -1.4860    0.3743 C.ar    1  UNL1        0.0000
     39 C          -6.1137   -0.4489    0.9009 C.ar    1  UNL1        0.0000
     40 C          -6.7828   -0.7008    2.1052 C.ar    1  UNL1        0.0000
     41 C          -6.6893   -1.9443    2.7430 C.ar    1  UNL1        0.0000
     42 C          -5.9119   -2.9778    2.2047 C.ar    1  UNL1        0.0000
     43 C          -5.2491   -2.7194    1.0156 C.ar    1  UNL1        0.0000
     44 C          -4.3135   -3.5848    0.2375 C.2     1  UNL1        0.0000
     45 C           2.7583   -3.0074   -0.4117 C.3     1  UNL1        0.0000
     46 C           2.3561   -4.2050   -1.3212 C.3     1  UNL1        0.0000
     47 C           2.8857   -3.8676   -2.7264 C.3     1  UNL1        0.0000
     48 C           4.0188   -2.8277   -2.5232 C.3     1  UNL1        0.0000
     49 C           4.1333   -2.6026   -1.0034 C.3     1  UNL1        0.0000
     50 C           1.6823   -3.9767    1.6305 C.2     1  UNL1        0.0000
     51 C           1.9475   -3.9230    3.0918 C.ar    1  UNL1        0.0000
     52 C           1.1883   -4.3877    4.1550 C.ar    1  UNL1        0.0000
     53 C           1.6957   -4.1797    5.4431 C.ar    1  UNL1        0.0000
     54 C           2.9219   -3.5315    5.6419 C.ar    1  UNL1        0.0000
     55 C           3.6803   -3.0705    4.5592 C.ar    1  UNL1        0.0000
     56 C           3.1657   -3.2790    3.2889 C.ar    1  UNL1        0.0000
     57 C           3.7233   -2.9004    1.9604 C.2     1  UNL1        0.0000
     58 C           2.5433    3.0159    0.0984 C.3     1  UNL1        0.0000
     59 C           2.4293    3.5221    1.5475 C.3     1  UNL1        0.0000
     60 C           2.9959    4.9443    1.4686 C.3     1  UNL1        0.0000
     61 C           2.4336    5.4979    0.1403 C.3     1  UNL1        0.0000
     62 C           2.1620    4.2619   -0.7541 C.3     1  UNL1        0.0000
     63 C           5.0120    3.2336   -0.7044 C.2     1  UNL1        0.0000
     64 C           6.1618    2.2810   -0.6689 C.ar    1  UNL1        0.0000
     65 C           7.4727    2.4579   -1.0811 C.ar    1  UNL1        0.0000
     66 C           8.3535    1.3847   -0.8926 C.ar    1  UNL1        0.0000
     67 C           7.9244    0.1896   -0.3019 C.ar    1  UNL1        0.0000
     68 C           6.5978    0.0195    0.1159 C.ar    1  UNL1        0.0000
     69 C           5.7353    1.0864   -0.0917 C.ar    1  UNL1        0.0000
     70 C           4.2931    1.2278    0.2270 C.2     1  UNL1        0.0000
     71 H          -4.5999    1.6139   -1.6246 H       1  UNL1        0.0000
     72 H          -4.9729    3.3310   -1.8324 H       1  UNL1        0.0000
     73 H          -4.7137    2.5772   -4.1342 H       1  UNL1        0.0000
     74 H          -3.3596    1.5356   -3.7048 H       1  UNL1        0.0000
     75 H          -3.2836    4.4933   -4.2328 H       1  UNL1        0.0000
     76 H          -1.9698    3.3220   -4.2942 H       1  UNL1        0.0000
     77 H          -2.8495    5.0414   -2.0040 H       1  UNL1        0.0000
     78 H          -1.3004    4.2249   -2.1969 H       1  UNL1        0.0000
     79 H          -0.7270    5.0111    3.1961 H       1  UNL1        0.0000
     80 H          -1.8919    4.9268    5.4173 H       1  UNL1        0.0000
     81 H          -4.1787    4.0309    5.5995 H       1  UNL1        0.0000
     82 H          -5.3846    3.1840    3.5677 H       1  UNL1        0.0000
     83 H          -4.2062   -3.5650   -3.3470 H       1  UNL1        0.0000
     84 H          -3.3704   -2.0446   -3.6764 H       1  UNL1        0.0000
     85 H          -1.5600   -3.2192   -4.6968 H       1  UNL1        0.0000
     86 H          -2.5998   -4.6398   -4.6566 H       1  UNL1        0.0000
     87 H          -0.9521   -5.5117   -3.1509 H       1  UNL1        0.0000
     88 H          -0.3312   -3.8966   -2.8277 H       1  UNL1        0.0000
     89 H          -1.4883   -4.4460   -0.7258 H       1  UNL1        0.0000
     90 H          -2.8233   -5.1917   -1.6030 H       1  UNL1        0.0000
     91 H          -5.8168   -3.9401    2.6959 H       1  UNL1        0.0000
     92 H           1.2882   -4.4108   -1.2901 H       1  UNL1        0.0000
     93 H           2.8666   -5.0827   -0.9120 H       1  UNL1        0.0000
     94 H           3.2357   -4.7721   -3.2323 H       1  UNL1        0.0000
     95 H           2.0893   -3.4401   -3.3390 H       1  UNL1        0.0000
     96 H           4.9747   -3.1692   -2.9310 H       1  UNL1        0.0000
     97 H           3.7644   -1.8928   -3.0254 H       1  UNL1        0.0000
     98 H           4.8809   -3.2698   -0.5697 H       1  UNL1        0.0000
     99 H           4.4080   -1.5858   -0.7339 H       1  UNL1        0.0000
    100 H           0.2404   -4.8864    3.9844 H       1  UNL1        0.0000
    101 H           1.1312   -4.5241    6.3038 H       1  UNL1        0.0000
    102 H           3.2866   -3.3839    6.6535 H       1  UNL1        0.0000
    103 H           4.6294   -2.5644    4.6975 H       1  UNL1        0.0000
    104 H           2.9339    2.8603    2.2553 H       1  UNL1        0.0000
    105 H           1.3673    3.5488    1.8042 H       1  UNL1        0.0000
    106 H           2.7188    5.5518    2.3355 H       1  UNL1        0.0000
    107 H           4.0896    4.9149    1.4291 H       1  UNL1        0.0000
    108 H           3.1317    6.1893   -0.3343 H       1  UNL1        0.0000
    109 H           1.4932    6.0268    0.3202 H       1  UNL1        0.0000
    110 H           1.0980    4.1878   -0.9795 H       1  UNL1        0.0000
    111 H           2.7067    4.2782   -1.6951 H       1  UNL1        0.0000
    112 H           6.2490   -0.8920    0.5895 H       1  UNL1        0.0000
    113 O           3.5417    0.4107    0.7233 O.2     1  UNL1        0.0000
    114 O           5.0300    4.3858   -1.0880 O.2     1  UNL1        0.0000
    115 O           4.7669   -2.3157    1.7507 O.2     1  UNL1        0.0000
    116 O           0.7084   -4.4307    1.0668 O.2     1  UNL1        0.0000
    117 O          -3.9491   -4.7076    0.5140 O.2     1  UNL1        0.0000
    118 O          -4.2934   -0.6586   -1.6592 O.2     1  UNL1        0.0000
    119 O          -5.2102    2.6601    0.6530 O.2     1  UNL1        0.0000
    120 O          -0.9146    4.3010    0.2871 O.2     1  UNL1        0.0000
    121 H          -6.1560    0.5211    0.4197 H       1  UNL1        0.0000
    122 H          -7.3799    0.0857    2.5558 H       1  UNL1        0.0000
    123 H          -7.2209   -2.1048    3.6758 H       1  UNL1        0.0000
    124 H           7.7944    3.3924   -1.5279 H       1  UNL1        0.0000
    125 H           9.3888    1.4817   -1.2042 H       1  UNL1        0.0000
    126 H           8.6358   -0.6181   -0.1615 H       1  UNL1        0.0000
@<TRIPOS>BOND
     1     1    12    1
     2     1    14    1
     3     2    11    1
     4     2    13    1
     5     2     1    1
     6     3     7    1
     7     4    58    1
     8     4    14    1
     9     5    45    1
    10     5    12    1
    11     6     9    1
    12     7     1    1
    13     8     2    1
    14     8     3    1
    15     9     1    1
    16    10     2    1
    17    10     6    1
    18    11     5    1
    19    13     4    1
    20    15    24   am
    21    15    31   am
    22    16    37   am
    23    16    44   am
    24    17    50   am
    25    17    57   am
    26    18    58    1
    27    18    70   am
    28    19     3    1
    29    19    15    1
    30    20    72    1
    31    20    71    1
    32    20    19    1
    33    21    20    1
    34    22    21    1
    35    22    23    1
    36    23    78    1
    37    23    77    1
    38    23    19    1
    39    24    25    1
    40    25    30   ar
    41    25    26   ar
    42    26    27   ar
    43    27    28   ar
    44    27    80    1
    45    28    81    1
    46    29    82    1
    47    29    28   ar
    48    30    29   ar
    49    31    30    1
    50    32    36    1
    51    32     6    1
    52    32    16    1
    53    33    32    1
    54    34    33    1
    55    34    35    1
    56    35    88    1
    57    35    36    1
    58    36    90    1
    59    36    89    1
    60    37    38    1
    61    38    39   ar
    62    38    43   ar
    63    39    40   ar
    64    40   122    1
    65    40    41   ar
    66    41   123    1
    67    42    91    1
    68    42    41   ar
    69    43    42   ar
    70    44   117    2
    71    44    43    1
    72    45    17    1
    73    46    92    1
    74    46    93    1
    75    46    45    1
    76    47    48    1
    77    47    46    1
    78    48    49    1
    79    49    99    1
    80    49    98    1
    81    49    45    1
    82    50    51    1
    83    51    56   ar
    84    51    52   ar
    85    52    53   ar
    86    53    54   ar
    87    53   101    1
    88    54   102    1
    89    55   103    1
    90    55    54   ar
    91    56    55   ar
    92    57    56    1
    93    58    59    1
    94    59   105    1
    95    59   104    1
    96    60    59    1
    97    60   106    1
    98    61   109    1
    99    61    60    1
   100    62    58    1
   101    62    61    1
   102    63    64    1
   103    63    18   am
   104    64    69   ar
   105    65    66   ar
   106    65    64   ar
   107    66    67   ar
   108    67   126    1
   109    67    68   ar
   110    68   112    1
   111    69    68   ar
   112    69    70    1
   113    70   113    2
   114    73    21    1
   115    74    21    1
   116    75    22    1
   117    76    22    1
   118    79    26    1
   119    83    33    1
   120    84    33    1
   121    85    34    1
   122    86    34    1
   123    87    35    1
   124    94    47    1
   125    95    47    1
   126    96    48    1
   127    97    48    1
   128   100    52    1
   129   107    60    1
   130   108    61    1
   131   110    62    1
   132   111    62    1
   133   114    63    2
   134   115    57    2
   135   116    50    2
   136   118    37    2
   137   119    31    2
   138   120    24    2
   139   121    39    1
   140   124    65    1
   141   125    66    1
