@<TRIPOS>MOLECULE
RhRh_PhPhtol-O2C4_1_sp
 162 177 0 0 0
SMALL
GASTEIGER

@<TRIPOS>ATOM
      1 Rh          0.0614   -0.0031   -1.1542 Rh      1  UNL1        0.0000
      2 Rh          0.1223    0.0489    1.2299 Rh      1  UNL1        0.0000
      3 C          -2.0857   -1.4780    0.0830 C.3     1  UNL1        0.0000
      4 C          -1.4550    2.1614    0.0474 C.3     1  UNL1        0.0000
      5 C           2.2477    1.5372   -0.0431 C.3     1  UNL1        0.0000
      6 C           1.5731   -2.1551    0.0560 C.3     1  UNL1        0.0000
      7 O          -1.0994    1.6878   -1.0756 O.3     1  UNL1        0.0000
      8 O          -0.9730    1.8017    1.1681 O.3     1  UNL1        0.0000
      9 O           1.7770    1.1318   -1.1530 O.3     1  UNL1        0.0000
     10 O           1.8559    1.1397    1.0964 O.3     1  UNL1        0.0000
     11 O           1.1596   -1.7469   -1.0688 O.3     1  UNL1        0.0000
     12 O           1.2281   -1.6633    1.1793 O.3     1  UNL1        0.0000
     13 O          -1.6514   -1.1006   -1.0509 O.3     1  UNL1        0.0000
     14 O          -1.6142   -1.0959    1.1974 O.3     1  UNL1        0.0000
     15 C          -2.5917    3.2295    0.0619 C.3     1  UNL1        0.0000
     16 C          -2.7419    3.7384   -1.3889 C.ar    1  UNL1        0.0000
     17 C          -3.2163    2.8496   -2.3658 C.ar    1  UNL1        0.0000
     18 C          -3.3791    3.2539   -3.6859 C.ar    1  UNL1        0.0000
     19 C          -3.0674    4.5634   -4.0630 C.ar    1  UNL1        0.0000
     20 C          -2.5936    5.4524   -3.1025 C.ar    1  UNL1        0.0000
     21 C          -2.4305    5.0418   -1.7760 C.ar    1  UNL1        0.0000
     22 C          -3.9034    2.5337    0.5430 C.ar    1  UNL1        0.0000
     23 C          -3.8300    1.4217    1.3957 C.ar    1  UNL1        0.0000
     24 C          -4.9644    0.7697    1.8711 C.ar    1  UNL1        0.0000
     25 C          -6.2218    1.2219    1.4924 C.ar    1  UNL1        0.0000
     26 C          -6.3147    2.3569    0.6927 C.ar    1  UNL1        0.0000
     27 C          -5.1869    3.0479    0.2247 C.ar    1  UNL1        0.0000
     28 C          -2.1781    4.3386    1.0462 C.ar    1  UNL1        0.0000
     29 C          -3.0339    4.8097    2.0447 C.ar    1  UNL1        0.0000
     30 C          -2.6344    5.8433    2.8949 C.ar    1  UNL1        0.0000
     31 C          -1.3731    6.4198    2.7617 C.ar    1  UNL1        0.0000
     32 C          -0.5069    5.9494    1.7734 C.ar    1  UNL1        0.0000
     33 C          -0.9063    4.9156    0.9312 C.ar    1  UNL1        0.0000
     34 C           3.3578    2.6200   -0.1121 C.3     1  UNL1        0.0000
     35 C           4.3443    2.1916   -1.2213 C.ar    1  UNL1        0.0000
     36 C           4.8985    3.1131   -2.1123 C.ar    1  UNL1        0.0000
     37 C           5.8452    2.7082   -3.0562 C.ar    1  UNL1        0.0000
     38 C           6.2557    1.3784   -3.1185 C.ar    1  UNL1        0.0000
     39 C           5.7115    0.4515   -2.2275 C.ar    1  UNL1        0.0000
     40 C           4.7633    0.8568   -1.2933 C.ar    1  UNL1        0.0000
     41 C           4.0692    2.7355    1.2617 C.ar    1  UNL1        0.0000
     42 C           3.3909    3.1259    2.4426 C.ar    1  UNL1        0.0000
     43 C           4.1131    3.1791    3.6429 C.ar    1  UNL1        0.0000
     44 C           5.4690    2.8770    3.7137 C.ar    1  UNL1        0.0000
     45 C           6.1411    2.5255    2.5476 C.ar    1  UNL1        0.0000
     46 C           5.4418    2.4606    1.3445 C.ar    1  UNL1        0.0000
     47 C           2.6937    3.9618   -0.5271 C.ar    1  UNL1        0.0000
     48 C           1.7061    4.0145   -1.5216 C.ar    1  UNL1        0.0000
     49 C           1.1787    5.2353   -1.9429 C.ar    1  UNL1        0.0000
     50 C           1.6333    6.4298   -1.3859 C.ar    1  UNL1        0.0000
     51 C           2.6311    6.3901   -0.4121 C.ar    1  UNL1        0.0000
     52 C           3.1573    5.1691    0.0105 C.ar    1  UNL1        0.0000
     53 C           2.6101   -3.3069    0.1172 C.3     1  UNL1        0.0000
     54 C           3.9966   -2.6558    0.3840 C.ar    1  UNL1        0.0000
     55 C           4.1441   -1.6332    1.3336 C.ar    1  UNL1        0.0000
     56 C           5.3980   -1.0932    1.6158 C.ar    1  UNL1        0.0000
     57 C           6.5329   -1.5699    0.9613 C.ar    1  UNL1        0.0000
     58 C           6.4017   -2.6038    0.0350 C.ar    1  UNL1        0.0000
     59 C           5.1465   -3.1439   -0.2482 C.ar    1  UNL1        0.0000
     60 C           2.2235   -4.1824    1.3306 C.ar    1  UNL1        0.0000
     61 C           0.8768   -4.4995    1.5567 C.ar    1  UNL1        0.0000
     62 C           0.5056   -5.3123    2.6227 C.ar    1  UNL1        0.0000
     63 C           1.4770   -5.8347    3.4795 C.ar    1  UNL1        0.0000
     64 C           2.8190   -5.5400    3.2512 C.ar    1  UNL1        0.0000
     65 C           3.1895   -4.7183    2.1839 C.ar    1  UNL1        0.0000
     66 C           2.6051   -4.1320   -1.1958 C.ar    1  UNL1        0.0000
     67 C           2.8928   -3.5747   -2.4665 C.ar    1  UNL1        0.0000
     68 C           2.8397   -4.4112   -3.5912 C.ar    1  UNL1        0.0000
     69 C           2.5497   -5.7687   -3.5025 C.ar    1  UNL1        0.0000
     70 C           2.3169   -6.3242   -2.2487 C.ar    1  UNL1        0.0000
     71 C           2.3424   -5.5080   -1.1213 C.ar    1  UNL1        0.0000
     72 C          -3.2211   -2.5483    0.0400 C.3     1  UNL1        0.0000
     73 C          -2.4403   -3.8605   -0.2772 C.ar    1  UNL1        0.0000
     74 C          -2.5384   -4.9990    0.5299 C.ar    1  UNL1        0.0000
     75 C          -1.8664   -6.1747    0.1921 C.ar    1  UNL1        0.0000
     76 C          -1.0673   -6.2285   -0.9468 C.ar    1  UNL1        0.0000
     77 C          -0.9572   -5.0984   -1.7571 C.ar    1  UNL1        0.0000
     78 C          -1.6430   -3.9317   -1.4304 C.ar    1  UNL1        0.0000
     79 C          -3.9604   -2.6357    1.3886 C.ar    1  UNL1        0.0000
     80 C          -3.2552   -2.8104    2.5919 C.ar    1  UNL1        0.0000
     81 C          -3.9253   -2.8890    3.8099 C.ar    1  UNL1        0.0000
     82 C          -5.3191   -2.8134    3.8570 C.ar    1  UNL1        0.0000
     83 C          -6.0308   -2.6672    2.6696 C.ar    1  UNL1        0.0000
     84 C          -5.3569   -2.5763    1.4498 C.ar    1  UNL1        0.0000
     85 C          -4.2120   -2.1601   -1.0861 C.ar    1  UNL1        0.0000
     86 C          -4.9777   -3.0913   -1.8226 C.ar    1  UNL1        0.0000
     87 C          -5.8934   -2.5982   -2.7672 C.ar    1  UNL1        0.0000
     88 C          -6.1008   -1.2385   -2.9704 C.ar    1  UNL1        0.0000
     89 C          -5.3878   -0.3241   -2.1996 C.ar    1  UNL1        0.0000
     90 C          -4.4592   -0.7922   -1.2779 C.ar    1  UNL1        0.0000
     91 C          -5.4456    4.3360   -0.5280 C.3     1  UNL1        0.0000
     92 C           1.9355    3.5253    2.5320 C.3     1  UNL1        0.0000
     93 C           3.3060   -2.1448   -2.7353 C.3     1  UNL1        0.0000
     94 C          -4.9419   -4.5904   -1.6243 C.3     1  UNL1        0.0000
     95 H          -3.4586    1.8316   -2.0896 H       1  UNL1        0.0000
     96 H          -3.7510    2.5454   -4.4200 H       1  UNL1        0.0000
     97 H          -3.1969    4.8835   -5.0923 H       1  UNL1        0.0000
     98 H          -2.3546    6.4760   -3.3760 H       1  UNL1        0.0000
     99 H          -2.0747    5.7548   -1.0439 H       1  UNL1        0.0000
    100 H          -2.8692    1.0479    1.7091 H       1  UNL1        0.0000
    101 H          -4.8521   -0.0900    2.5202 H       1  UNL1        0.0000
    102 H          -7.1196    0.7151    1.8323 H       1  UNL1        0.0000
    103 H          -7.2951    2.7464    0.4320 H       1  UNL1        0.0000
    104 H          -4.0131    4.3649    2.1707 H       1  UNL1        0.0000
    105 H          -3.3156    6.1929    3.6648 H       1  UNL1        0.0000
    106 H          -1.0651    7.2239    3.4231 H       1  UNL1        0.0000
    107 H           0.4815    6.3788    1.6499 H       1  UNL1        0.0000
    108 H          -0.2233    4.5653    0.1673 H       1  UNL1        0.0000
    109 H           4.5958    4.1521   -2.0745 H       1  UNL1        0.0000
    110 H           6.2610    3.4404   -3.7419 H       1  UNL1        0.0000
    111 H           6.9934    1.0660   -3.8514 H       1  UNL1        0.0000
    112 H           6.0242   -0.5867   -2.2469 H       1  UNL1        0.0000
    113 H           4.3693    0.1310   -0.5931 H       1  UNL1        0.0000
    114 H           3.5831    3.4743    4.5450 H       1  UNL1        0.0000
    115 H           5.9922    2.9291    4.6638 H       1  UNL1        0.0000
    116 H           7.2036    2.3024    2.5638 H       1  UNL1        0.0000
    117 H           5.9822    2.1826    0.4511 H       1  UNL1        0.0000
    118 H           1.3450    3.1006   -1.9714 H       1  UNL1        0.0000
    119 H           0.3969    5.2421   -2.6951 H       1  UNL1        0.0000
    120 H           1.2175    7.3796   -1.7075 H       1  UNL1        0.0000
    121 H           3.0064    7.3114    0.0236 H       1  UNL1        0.0000
    122 H           3.9332    5.1547    0.7660 H       1  UNL1        0.0000
    123 H           3.2770   -1.2535    1.8555 H       1  UNL1        0.0000
    124 H           5.4785   -0.2847    2.3343 H       1  UNL1        0.0000
    125 H           7.5080   -1.1418    1.1719 H       1  UNL1        0.0000
    126 H           7.2773   -2.9962   -0.4738 H       1  UNL1        0.0000
    127 H           5.0610   -3.9477   -0.9690 H       1  UNL1        0.0000
    128 H           0.1095   -4.1183    0.8933 H       1  UNL1        0.0000
    129 H          -0.5444   -5.5382    2.7755 H       1  UNL1        0.0000
    130 H           1.1887   -6.4671    4.3138 H       1  UNL1        0.0000
    131 H           3.5860   -5.9440    3.9052 H       1  UNL1        0.0000
    132 H           4.2367   -4.4938    2.0217 H       1  UNL1        0.0000
    133 H           3.0525   -3.9730   -4.5630 H       1  UNL1        0.0000
    134 H           2.5253   -6.3827   -4.3978 H       1  UNL1        0.0000
    135 H           2.1113   -7.3847   -2.1399 H       1  UNL1        0.0000
    136 H           2.1439   -5.9564   -0.1586 H       1  UNL1        0.0000
    137 H          -3.1614   -4.9838    1.4144 H       1  UNL1        0.0000
    138 H          -1.9651   -7.0463    0.8317 H       1  UNL1        0.0000
    139 H          -0.5256   -7.1341   -1.1982 H       1  UNL1        0.0000
    140 H          -0.3239   -5.1189   -2.6372 H       1  UNL1        0.0000
    141 H          -1.5625   -3.0684   -2.0759 H       1  UNL1        0.0000
    142 H          -2.1764   -2.8860    2.5760 H       1  UNL1        0.0000
    143 H          -3.3542   -3.0142    4.7249 H       1  UNL1        0.0000
    144 H          -5.8400   -2.8743    4.8076 H       1  UNL1        0.0000
    145 H          -7.1152   -2.6136    2.6841 H       1  UNL1        0.0000
    146 H          -5.9295   -2.4375    0.5425 H       1  UNL1        0.0000
    147 H          -6.4728   -3.3165   -3.3406 H       1  UNL1        0.0000
    148 H          -6.8264   -0.9010   -3.7043 H       1  UNL1        0.0000
    149 H          -5.5543    0.7437   -2.2968 H       1  UNL1        0.0000
    150 H          -3.9303   -0.0669   -0.6764 H       1  UNL1        0.0000
    151 H          -6.4634    4.6768   -0.3201 H       1  UNL1        0.0000
    152 H          -4.7600    5.1292   -0.2261 H       1  UNL1        0.0000
    153 H          -5.3439    4.2190   -1.6097 H       1  UNL1        0.0000
    154 H           1.4214    3.5563    1.5799 H       1  UNL1        0.0000
    155 H           1.3859    2.8253    3.1683 H       1  UNL1        0.0000
    156 H           1.8475    4.5184    2.9843 H       1  UNL1        0.0000
    157 H           3.4843   -1.5607   -1.8415 H       1  UNL1        0.0000
    158 H           4.2255   -2.1334   -3.3300 H       1  UNL1        0.0000
    159 H           2.5354   -1.6230   -3.3102 H       1  UNL1        0.0000
    160 H          -4.0204   -5.0432   -1.9976 H       1  UNL1        0.0000
    161 H          -5.0264   -4.8595   -0.5692 H       1  UNL1        0.0000
    162 H          -5.7814   -5.0488   -2.1533 H       1  UNL1        0.0000
@<TRIPOS>BOND
     1     1     9    1
     2     1     7    1
     3     1    11    1
     4     1    13    1
     5     1     2    1
     6     3    14    1
     7     4    15    1
     8     4     8    1
     9     5    10    1
    10     6    53    1
    11     6    12    1
    12     7     4    1
    13     8     2    1
    14     9     5    1
    15    10     2    1
    16    11     6    1
    17    12     2    1
    18    13     3    1
    19    14     2    1
    20    15    22    1
    21    15    28    1
    22    16    15    1
    23    17    95    1
    24    17    16   ar
    25    18    17   ar
    26    19    18   ar
    27    19    20   ar
    28    20    21   ar
    29    21    16   ar
    30    21    99    1
    31    22    23   ar
    32    23   100    1
    33    23    24   ar
    34    24   101    1
    35    25   102    1
    36    25    24   ar
    37    26    25   ar
    38    27    22   ar
    39    27    26   ar
    40    28    29   ar
    41    29   104    1
    42    29    30   ar
    43    30   105    1
    44    31    30   ar
    45    31   106    1
    46    32    31   ar
    47    33    28   ar
    48    33    32   ar
    49    34     5    1
    50    34    41    1
    51    35    34    1
    52    36   109    1
    53    36    35   ar
    54    37    36   ar
    55    38    37   ar
    56    38    39   ar
    57    39    40   ar
    58    40    35   ar
    59    40   113    1
    60    41    46   ar
    61    41    42   ar
    62    42    92    1
    63    42    43   ar
    64    43    44   ar
    65    43   114    1
    66    44   115    1
    67    45   116    1
    68    45    44   ar
    69    46    45   ar
    70    47    34    1
    71    47    52   ar
    72    48    47   ar
    73    49    48   ar
    74    49    50   ar
    75    50    51   ar
    76    51    52   ar
    77    51   121    1
    78    52   122    1
    79    53    54    1
    80    53    60    1
    81    54    55   ar
    82    55    56   ar
    83    55   123    1
    84    56   124    1
    85    57   125    1
    86    57    56   ar
    87    58    57   ar
    88    59    58   ar
    89    59    54   ar
    90    60    61   ar
    91    60    65   ar
    92    61    62   ar
    93    62   129    1
    94    62    63   ar
    95    63   130    1
    96    64    63   ar
    97    64   131    1
    98    65    64   ar
    99    66    71   ar
   100    66    53    1
   101    67    66   ar
   102    68    69   ar
   103    68    67   ar
   104    69    70   ar
   105    70   135    1
   106    70    71   ar
   107    71   136    1
   108    72     3    1
   109    72    79    1
   110    73    72    1
   111    73    74   ar
   112    74   137    1
   113    75    74   ar
   114    75   138    1
   115    76    75   ar
   116    77    78   ar
   117    77    76   ar
   118    78    73   ar
   119    79    84   ar
   120    79    80   ar
   121    80    81   ar
   122    81    82   ar
   123    81   143    1
   124    82   144    1
   125    83   145    1
   126    83    82   ar
   127    84    83   ar
   128    85    72    1
   129    86    94    1
   130    86    85   ar
   131    87    86   ar
   132    88    87   ar
   133    88    89   ar
   134    89    90   ar
   135    90    85   ar
   136    90   150    1
   137    91   151    1
   138    91   152    1
   139    91    27    1
   140    92   156    1
   141    92   155    1
   142    93    67    1
   143    93   157    1
   144    94   161    1
   145    96    18    1
   146    97    19    1
   147    98    20    1
   148   103    26    1
   149   107    32    1
   150   108    33    1
   151   110    37    1
   152   111    38    1
   153   112    39    1
   154   117    46    1
   155   118    48    1
   156   119    49    1
   157   120    50    1
   158   126    58    1
   159   127    59    1
   160   128    61    1
   161   132    65    1
   162   133    68    1
   163   134    69    1
   164   139    76    1
   165   140    77    1
   166   141    78    1
   167   142    80    1
   168   146    84    1
   169   147    87    1
   170   148    88    1
   171   149    89    1
   172   153    91    1
   173   154    92    1
   174   158    93    1
   175   159    93    1
   176   160    94    1
   177   162    94    1
