@<TRIPOS>MOLECULE
RhRh_ACyPentyl4_14_sp
 126 141 0 0 0
SMALL
GASTEIGER

@<TRIPOS>ATOM
      1 Rh         -0.4209   -0.3811    0.2164 Rh      1  UNL1        0.0000
      2 Rh         -0.2714   -1.2208   -2.0181 Rh      1  UNL1        0.0000
      3 C          -2.1879    0.9077   -1.6663 C.3     1  UNL1        0.0000
      4 C           1.4758    1.0062   -1.4441 C.3     1  UNL1        0.0000
      5 C           1.5783   -2.4276   -0.1442 C.3     1  UNL1        0.0000
      6 C          -2.1979   -2.5777   -0.3435 C.3     1  UNL1        0.0000
      7 O          -1.9513    0.8242   -0.4186 O.3     1  UNL1        0.0000
      8 O          -1.7227    0.1470   -2.5674 O.3     1  UNL1        0.0000
      9 O          -1.7527   -1.8855    0.6261 O.3     1  UNL1        0.0000
     10 O          -1.7406   -2.5879   -1.5261 O.3     1  UNL1        0.0000
     11 O           1.1812   -2.5135   -1.3473 O.3     1  UNL1        0.0000
     12 O           1.1434   -1.6132    0.7270 O.3     1  UNL1        0.0000
     13 O           1.1825    0.2029   -2.3804 O.3     1  UNL1        0.0000
     14 O           0.8888    1.0893   -0.3195 O.3     1  UNL1        0.0000
     15 N          -2.9480    3.1227   -1.0977 N.am    1  UNL1        0.0000
     16 N          -4.2073   -2.7503    0.9612 N.am    1  UNL1        0.0000
     17 N           3.9391   -2.7057    0.4592 N.am    1  UNL1        0.0000
     18 N           3.1148    2.3860   -0.3317 N.am    1  UNL1        0.0000
     19 C          -3.1263    2.0438   -2.0953 C.3     1  UNL1        0.0000
     20 C          -4.5862    1.5556   -2.2367 C.3     1  UNL1        0.0000
     21 C          -5.2846    2.6613   -3.0485 C.3     1  UNL1        0.0000
     22 C          -4.1549    3.3622   -3.8561 C.3     1  UNL1        0.0000
     23 C          -2.8666    2.5892   -3.5168 C.3     1  UNL1        0.0000
     24 C          -3.7687    3.4327    0.0047 C.2     1  UNL1        0.0000
     25 C          -2.9386    4.2740    0.9156 C.ar    1  UNL1        0.0000
     26 C          -3.2660    4.8571    2.1296 C.ar    1  UNL1        0.0000
     27 C          -2.2553    5.5635    2.7938 C.ar    1  UNL1        0.0000
     28 C          -0.9692    5.6732    2.2486 C.ar    1  UNL1        0.0000
     29 C          -0.6469    5.0842    1.0194 C.ar    1  UNL1        0.0000
     30 C          -1.6604    4.3894    0.3747 C.ar    1  UNL1        0.0000
     31 C          -1.6384    3.6249   -0.8941 C.2     1  UNL1        0.0000
     32 C          -3.3949   -3.4915   -0.0124 C.3     1  UNL1        0.0000
     33 C          -4.1888   -3.8807   -1.2825 C.3     1  UNL1        0.0000
     34 C          -3.4697   -5.1219   -1.8685 C.3     1  UNL1        0.0000
     35 C          -2.4305   -5.5559   -0.8038 C.3     1  UNL1        0.0000
     36 C          -2.8708   -4.8592    0.4897 C.3     1  UNL1        0.0000
     37 C          -4.6474   -1.4554    0.6101 C.2     1  UNL1        0.0000
     38 C          -5.0529   -0.7827    1.8676 C.ar    1  UNL1        0.0000
     39 C          -5.5501    0.4949    2.0820 C.ar    1  UNL1        0.0000
     40 C          -5.7985    0.8635    3.4099 C.ar    1  UNL1        0.0000
     41 C          -5.5539   -0.0204    4.4689 C.ar    1  UNL1        0.0000
     42 C          -5.0412   -1.3029    4.2374 C.ar    1  UNL1        0.0000
     43 C          -4.7946   -1.6591    2.9207 C.ar    1  UNL1        0.0000
     44 C          -4.1979   -2.9093    2.3680 C.2     1  UNL1        0.0000
     45 C           2.6635   -3.4260    0.3312 C.3     1  UNL1        0.0000
     46 C           2.1779   -4.0871    1.6402 C.3     1  UNL1        0.0000
     47 C           1.0811   -5.0390    1.1410 C.3     1  UNL1        0.0000
     48 C           1.5736   -5.5441   -0.2421 C.3     1  UNL1        0.0000
     49 C           2.7674   -4.6371   -0.6224 C.3     1  UNL1        0.0000
     50 C           4.4497   -2.1111    1.6333 C.2     1  UNL1        0.0000
     51 C           5.7186   -1.4379    1.2333 C.ar    1  UNL1        0.0000
     52 C           6.6293   -0.7298    2.0002 C.ar    1  UNL1        0.0000
     53 C           7.7074   -0.1350    1.3325 C.ar    1  UNL1        0.0000
     54 C           7.8525   -0.2530   -0.0554 C.ar    1  UNL1        0.0000
     55 C           6.9252   -0.9731   -0.8190 C.ar    1  UNL1        0.0000
     56 C           5.8669   -1.5600   -0.1444 C.ar    1  UNL1        0.0000
     57 C           4.7049   -2.3243   -0.6702 C.2     1  UNL1        0.0000
     58 C           2.6488    1.9696   -1.6729 C.3     1  UNL1        0.0000
     59 C           2.2591    3.1491   -2.5922 C.3     1  UNL1        0.0000
     60 C           3.6041    3.7244   -3.0774 C.3     1  UNL1        0.0000
     61 C           4.6345    2.5683   -2.9313 C.3     1  UNL1        0.0000
     62 C           3.8195    1.3477   -2.4686 C.3     1  UNL1        0.0000
     63 C           3.4269    1.3621    0.5913 C.2     1  UNL1        0.0000
     64 C           3.4904    1.9835    1.9321 C.ar    1  UNL1        0.0000
     65 C           3.7487    1.4163    3.1718 C.ar    1  UNL1        0.0000
     66 C           3.7008    2.2731    4.2791 C.ar    1  UNL1        0.0000
     67 C           3.4019    3.6343    4.1330 C.ar    1  UNL1        0.0000
     68 C           3.1302    4.1870    2.8747 C.ar    1  UNL1        0.0000
     69 C           3.1780    3.3329    1.7842 C.ar    1  UNL1        0.0000
     70 C           2.8862    3.6000    0.3441 C.2     1  UNL1        0.0000
     71 H          -4.5278    0.6270   -2.8113 H       1  UNL1        0.0000
     72 H          -5.0600    1.3216   -1.2910 H       1  UNL1        0.0000
     73 H          -5.7740    3.3641   -2.3695 H       1  UNL1        0.0000
     74 H          -6.0599    2.2411   -3.6951 H       1  UNL1        0.0000
     75 H          -4.0592    4.4079   -3.5480 H       1  UNL1        0.0000
     76 H          -4.3444    3.3641   -4.9329 H       1  UNL1        0.0000
     77 H          -1.9574    3.1842   -3.5764 H       1  UNL1        0.0000
     78 H          -2.7433    1.7229   -4.1711 H       1  UNL1        0.0000
     79 H          -4.2633    4.7574    2.5440 H       1  UNL1        0.0000
     80 H          -2.4685    6.0307    3.7502 H       1  UNL1        0.0000
     81 H          -0.2076    6.2231    2.7926 H       1  UNL1        0.0000
     82 H           0.3480    5.1553    0.5917 H       1  UNL1        0.0000
     83 H          -5.2031   -4.1313   -0.9585 H       1  UNL1        0.0000
     84 H          -4.2565   -3.0480   -1.9791 H       1  UNL1        0.0000
     85 H          -2.9812   -4.8829   -2.8152 H       1  UNL1        0.0000
     86 H          -4.1902   -5.9210   -2.0657 H       1  UNL1        0.0000
     87 H          -2.3722   -6.6401   -0.6783 H       1  UNL1        0.0000
     88 H          -1.4350   -5.2084   -1.0930 H       1  UNL1        0.0000
     89 H          -2.0881   -4.7667    1.2422 H       1  UNL1        0.0000
     90 H          -3.7054   -5.3889    0.9548 H       1  UNL1        0.0000
     91 H          -4.8305   -1.9918    5.0481 H       1  UNL1        0.0000
     92 H           1.8377   -3.3640    2.3765 H       1  UNL1        0.0000
     93 H           3.0154   -4.6448    2.0705 H       1  UNL1        0.0000
     94 H           0.8879   -5.8480    1.8498 H       1  UNL1        0.0000
     95 H           0.1436   -4.4836    1.0327 H       1  UNL1        0.0000
     96 H           1.8829   -6.5920   -0.2015 H       1  UNL1        0.0000
     97 H           0.7810   -5.4741   -0.9906 H       1  UNL1        0.0000
     98 H           3.7184   -5.1337   -0.4059 H       1  UNL1        0.0000
     99 H           2.7740   -4.3373   -1.6662 H       1  UNL1        0.0000
    100 H           6.5016   -0.6365    3.0732 H       1  UNL1        0.0000
    101 H           8.4415    0.4310    1.8973 H       1  UNL1        0.0000
    102 H           8.6956    0.2243   -0.5446 H       1  UNL1        0.0000
    103 H           7.0177   -1.0663   -1.8957 H       1  UNL1        0.0000
    104 H           1.6085    3.8706   -2.1108 H       1  UNL1        0.0000
    105 H           1.7065    2.6991   -3.4221 H       1  UNL1        0.0000
    106 H           3.5259    4.0814   -4.1080 H       1  UNL1        0.0000
    107 H           3.8853    4.5796   -2.4579 H       1  UNL1        0.0000
    108 H           5.3876    2.8228   -2.1787 H       1  UNL1        0.0000
    109 H           5.1710    2.3594   -3.8609 H       1  UNL1        0.0000
    110 H           3.3818    0.8186   -3.3181 H       1  UNL1        0.0000
    111 H           4.3871    0.6244   -1.8864 H       1  UNL1        0.0000
    112 H           2.8847    5.2362    2.7504 H       1  UNL1        0.0000
    113 O           2.5279    4.6593   -0.1360 O.2     1  UNL1        0.0000
    114 O           3.5714    0.1933    0.2962 O.2     1  UNL1        0.0000
    115 O           4.4422   -2.5718   -1.8282 O.2     1  UNL1        0.0000
    116 O           3.9610   -2.1413    2.7456 O.2     1  UNL1        0.0000
    117 O          -3.7879   -3.8663    2.9900 O.2     1  UNL1        0.0000
    118 O          -4.6387   -1.0124   -0.5224 O.2     1  UNL1        0.0000
    119 O          -0.6944    3.4141   -1.6290 O.2     1  UNL1        0.0000
    120 O          -4.9258    3.1008    0.1830 O.2     1  UNL1        0.0000
    121 H          -5.7122    1.1869    1.2638 H       1  UNL1        0.0000
    122 H          -6.1819    1.8565    3.6222 H       1  UNL1        0.0000
    123 H          -5.7562    0.2995    5.4863 H       1  UNL1        0.0000
    124 H           3.9501    0.3545    3.2724 H       1  UNL1        0.0000
    125 H           3.8903    1.8752    5.2709 H       1  UNL1        0.0000
    126 H           3.3712    4.2680    5.0138 H       1  UNL1        0.0000
@<TRIPOS>BOND
     1     1     9    1
     2     1    12    1
     3     2    10    1
     4     2    11    1
     5     2     1    1
     6     3     7    1
     7     4    14    1
     8     5    45    1
     9     5    12    1
    10     6    32    1
    11     6     9    1
    12     7     1    1
    13     8     2    1
    14     8     3    1
    15    10     6    1
    16    11     5    1
    17    13     2    1
    18    13     4    1
    19    14     1    1
    20    15    31   am
    21    15    24   am
    22    16    44   am
    23    17    50   am
    24    18    70   am
    25    18    63   am
    26    19     3    1
    27    19    15    1
    28    20    19    1
    29    20    72    1
    30    21    73    1
    31    21    20    1
    32    22    75    1
    33    22    23    1
    34    22    21    1
    35    23    19    1
    36    24   120    2
    37    24    25    1
    38    25    26   ar
    39    26    79    1
    40    26    27   ar
    41    27    80    1
    42    28    81    1
    43    28    27   ar
    44    29    28   ar
    45    30    25   ar
    46    30    29   ar
    47    31    30    1
    48    32    36    1
    49    32    16    1
    50    33    83    1
    51    33    32    1
    52    34    33    1
    53    34    35    1
    54    35    87    1
    55    35    36    1
    56    36    90    1
    57    36    89    1
    58    37    16   am
    59    37    38    1
    60    38    39   ar
    61    38    43   ar
    62    39    40   ar
    63    40   122    1
    64    40    41   ar
    65    41   123    1
    66    42    41   ar
    67    42    91    1
    68    43    42   ar
    69    44    43    1
    70    44   117    2
    71    45    17    1
    72    45    46    1
    73    46    93    1
    74    46    92    1
    75    47    46    1
    76    47    94    1
    77    48    96    1
    78    48    47    1
    79    49    98    1
    80    49    48    1
    81    49    45    1
    82    50   116    2
    83    51    50    1
    84    51    52   ar
    85    52   100    1
    86    53   101    1
    87    53    52   ar
    88    54    53   ar
    89    55    56   ar
    90    55    54   ar
    91    56    51   ar
    92    57    56    1
    93    57    17   am
    94    58     4    1
    95    58    18    1
    96    59   104    1
    97    59    58    1
    98    60    61    1
    99    60    59    1
   100    60   107    1
   101    61    62    1
   102    61   108    1
   103    62   111    1
   104    62    58    1
   105    63    64    1
   106    64    65   ar
   107    65   124    1
   108    65    66   ar
   109    66   125    1
   110    67    66   ar
   111    67   126    1
   112    68    67   ar
   113    69    64   ar
   114    69    68   ar
   115    70    69    1
   116    71    20    1
   117    74    21    1
   118    76    22    1
   119    77    23    1
   120    78    23    1
   121    82    29    1
   122    84    33    1
   123    85    34    1
   124    86    34    1
   125    88    35    1
   126    95    47    1
   127    97    48    1
   128    99    49    1
   129   102    54    1
   130   103    55    1
   131   105    59    1
   132   106    60    1
   133   109    61    1
   134   110    62    1
   135   112    68    1
   136   113    70    2
   137   114    63    2
   138   115    57    2
   139   118    37    2
   140   119    31    2
   141   121    39    1
