@<TRIPOS>MOLECULE
RhRh_ACyPentyl4_25_sp
 126 141 0 0 0
SMALL
GASTEIGER

@<TRIPOS>ATOM
      1 Rh          0.1730    0.3799   -1.1955 Rh      1  UNL1        0.0000
      2 Rh          0.2887   -0.5105    1.0232 Rh      1  UNL1        0.0000
      3 C          -2.1376   -1.1683   -0.3721 C.3     1  UNL1        0.0000
      4 C           1.2664   -2.3047   -1.0185 C.3     1  UNL1        0.0000
      5 C           2.6711    0.8704    0.1536 C.3     1  UNL1        0.0000
      6 C          -0.9156    2.1114    0.8048 C.3     1  UNL1        0.0000
      7 O          -1.7018   -0.4682   -1.3349 O.3     1  UNL1        0.0000
      8 O          -1.5914   -1.2910    0.7696 O.3     1  UNL1        0.0000
      9 O          -0.6465    2.0924   -0.4343 O.3     1  UNL1        0.0000
     10 O          -0.5577    1.2479    1.6660 O.3     1  UNL1        0.0000
     11 O           2.2014    0.2289    1.1405 O.3     1  UNL1        0.0000
     12 O           2.0625    1.1399   -0.9315 O.3     1  UNL1        0.0000
     13 O           1.0684   -2.2494    0.2366 O.3     1  UNL1        0.0000
     14 O           0.9994   -1.3916   -1.8571 O.3     1  UNL1        0.0000
     15 N          -4.2455   -1.3666   -1.5969 N.am    1  UNL1        0.0000
     16 N          -2.7447    2.6949    2.2478 N.am    1  UNL1        0.0000
     17 N           4.2774    2.6371   -0.2750 N.am    1  UNL1        0.0000
     18 N           2.4670   -4.3393   -0.4660 N.am    1  UNL1        0.0000
     19 C          -3.3666   -2.0526   -0.6408 C.3     1  UNL1        0.0000
     20 C          -4.0671   -2.4834    0.6704 C.3     1  UNL1        0.0000
     21 C          -3.2804   -3.7085    1.1993 C.3     1  UNL1        0.0000
     22 C          -2.3411   -4.1570    0.0530 C.3     1  UNL1        0.0000
     23 C          -2.8426   -3.4135   -1.1905 C.3     1  UNL1        0.0000
     24 C          -5.3491   -0.5554   -1.2474 C.2     1  UNL1        0.0000
     25 C          -5.7482    0.1585   -2.4904 C.ar    1  UNL1        0.0000
     26 C          -6.7718    1.0697   -2.6999 C.ar    1  UNL1        0.0000
     27 C          -6.9151    1.5864   -3.9928 C.ar    1  UNL1        0.0000
     28 C          -6.0610    1.1879   -5.0297 C.ar    1  UNL1        0.0000
     29 C          -5.0364    0.2605   -4.8064 C.ar    1  UNL1        0.0000
     30 C          -4.8997   -0.2366   -3.5192 C.ar    1  UNL1        0.0000
     31 C          -3.9240   -1.2182   -2.9725 C.2     1  UNL1        0.0000
     32 C          -1.7562    3.2865    1.3389 C.3     1  UNL1        0.0000
     33 C          -0.8203    4.3417    1.9746 C.3     1  UNL1        0.0000
     34 C          -0.2476    5.0765    0.7529 C.3     1  UNL1        0.0000
     35 C          -1.3819    5.0892   -0.3044 C.3     1  UNL1        0.0000
     36 C          -2.4380    4.0778    0.1974 C.3     1  UNL1        0.0000
     37 C          -3.5967    1.6859    1.7557 C.2     1  UNL1        0.0000
     38 C          -4.3744    1.1861    2.9169 C.ar    1  UNL1        0.0000
     39 C          -5.4025    0.2560    2.9792 C.ar    1  UNL1        0.0000
     40 C          -5.9256   -0.0267    4.2477 C.ar    1  UNL1        0.0000
     41 C          -5.4328    0.6060    5.3957 C.ar    1  UNL1        0.0000
     42 C          -4.4023    1.5514    5.3153 C.ar    1  UNL1        0.0000
     43 C          -3.8894    1.8257    4.0577 C.ar    1  UNL1        0.0000
     44 C          -2.8109    2.7772    3.6555 C.2     1  UNL1        0.0000
     45 C           4.1541    1.2448    0.1932 C.3     1  UNL1        0.0000
     46 C           4.8327    1.0817    1.5639 C.3     1  UNL1        0.0000
     47 C           6.3166    0.9443    1.1988 C.3     1  UNL1        0.0000
     48 C           6.3203    0.0629   -0.0725 C.3     1  UNL1        0.0000
     49 C           4.9126    0.2208   -0.6987 C.3     1  UNL1        0.0000
     50 C           5.1730    3.1914   -1.2121 C.2     1  UNL1        0.0000
     51 C           4.8256    4.6421   -1.2883 C.ar    1  UNL1        0.0000
     52 C           5.3833    5.6446   -2.0651 C.ar    1  UNL1        0.0000
     53 C           4.8568    6.9349   -1.9228 C.ar    1  UNL1        0.0000
     54 C           3.8130    7.1952   -1.0266 C.ar    1  UNL1        0.0000
     55 C           3.2601    6.1745   -0.2430 C.ar    1  UNL1        0.0000
     56 C           3.7852    4.9007   -0.3977 C.ar    1  UNL1        0.0000
     57 C           3.4325    3.6205    0.2690 C.2     1  UNL1        0.0000
     58 C           1.8562   -3.6058   -1.5814 C.3     1  UNL1        0.0000
     59 C           2.8611   -3.3171   -2.7300 C.3     1  UNL1        0.0000
     60 C           2.0170   -3.1825   -4.0195 C.3     1  UNL1        0.0000
     61 C           0.6068   -3.7281   -3.6794 C.3     1  UNL1        0.0000
     62 C           0.7512   -4.4155   -2.3154 C.3     1  UNL1        0.0000
     63 C           1.7859   -5.2519    0.3777 C.2     1  UNL1        0.0000
     64 C           2.6790   -5.4718    1.5492 C.ar    1  UNL1        0.0000
     65 C           2.5247   -6.3125    2.6406 C.ar    1  UNL1        0.0000
     66 C           3.5299   -6.2886    3.6149 C.ar    1  UNL1        0.0000
     67 C           4.6423   -5.4463    3.4877 C.ar    1  UNL1        0.0000
     68 C           4.7858   -4.6004    2.3815 C.ar    1  UNL1        0.0000
     69 C           3.7850   -4.6358    1.4226 C.ar    1  UNL1        0.0000
     70 C           3.6304   -3.8552    0.1686 C.2     1  UNL1        0.0000
     71 H          -4.1113   -1.6673    1.3873 H       1  UNL1        0.0000
     72 H          -5.0932   -2.7595    0.4244 H       1  UNL1        0.0000
     73 H          -3.9744   -4.5055    1.4824 H       1  UNL1        0.0000
     74 H          -2.7049   -3.4463    2.0890 H       1  UNL1        0.0000
     75 H          -2.3377   -5.2389   -0.0998 H       1  UNL1        0.0000
     76 H          -1.3117   -3.8706    0.2761 H       1  UNL1        0.0000
     77 H          -3.7038   -3.9246   -1.6346 H       1  UNL1        0.0000
     78 H          -2.0994   -3.2865   -1.9751 H       1  UNL1        0.0000
     79 H          -7.4251    1.3670   -1.8868 H       1  UNL1        0.0000
     80 H          -7.6993    2.3082   -4.1984 H       1  UNL1        0.0000
     81 H          -6.1982    1.6071   -6.0215 H       1  UNL1        0.0000
     82 H          -4.3692   -0.0597   -5.5992 H       1  UNL1        0.0000
     83 H          -1.4260    5.0092    2.5899 H       1  UNL1        0.0000
     84 H          -0.0571    3.8985    2.6147 H       1  UNL1        0.0000
     85 H           0.6187    4.5309    0.3769 H       1  UNL1        0.0000
     86 H           0.0902    6.0818    1.0223 H       1  UNL1        0.0000
     87 H          -1.8251    6.0838   -0.4098 H       1  UNL1        0.0000
     88 H          -0.9987    4.7977   -1.2847 H       1  UNL1        0.0000
     89 H          -2.8125    3.4148   -0.5799 H       1  UNL1        0.0000
     90 H          -3.2924    4.5968    0.6431 H       1  UNL1        0.0000
     91 H          -4.0133    2.0526    6.1950 H       1  UNL1        0.0000
     92 H           4.4579    0.1599    2.0159 H       1  UNL1        0.0000
     93 H           4.5987    1.9064    2.2401 H       1  UNL1        0.0000
     94 H           6.7371    1.9301    0.9717 H       1  UNL1        0.0000
     95 H           6.9086    0.5217    2.0156 H       1  UNL1        0.0000
     96 H           7.1007    0.3714   -0.7700 H       1  UNL1        0.0000
     97 H           6.4847   -0.9880    0.1823 H       1  UNL1        0.0000
     98 H           4.9273    0.5304   -1.7411 H       1  UNL1        0.0000
     99 H           4.3742   -0.7259   -0.6350 H       1  UNL1        0.0000
    100 H           6.1935    5.4281   -2.7528 H       1  UNL1        0.0000
    101 H           5.2638    7.7480   -2.5153 H       1  UNL1        0.0000
    102 H           3.4282    8.2061   -0.9378 H       1  UNL1        0.0000
    103 H           2.4532    6.3638    0.4553 H       1  UNL1        0.0000
    104 H           3.5295   -4.1811   -2.7881 H       1  UNL1        0.0000
    105 H           3.4761   -2.4435   -2.5247 H       1  UNL1        0.0000
    106 H           1.9581   -2.1390   -4.3338 H       1  UNL1        0.0000
    107 H           2.4820   -3.7438   -4.8353 H       1  UNL1        0.0000
    108 H           0.2317   -4.4288   -4.4303 H       1  UNL1        0.0000
    109 H          -0.1123   -2.9084   -3.6147 H       1  UNL1        0.0000
    110 H          -0.1760   -4.4813   -1.7510 H       1  UNL1        0.0000
    111 H           1.1293   -5.4355   -2.4300 H       1  UNL1        0.0000
    112 H           5.6381   -3.9386    2.2725 H       1  UNL1        0.0000
    113 O           4.3437   -2.9604   -0.2424 O.2     1  UNL1        0.0000
    114 O           0.6980   -5.7509    0.1817 O.2     1  UNL1        0.0000
    115 O           2.5882    3.4074    1.1195 O.2     1  UNL1        0.0000
    116 O           6.0581    2.6206   -1.8161 O.2     1  UNL1        0.0000
    117 O          -2.1423    3.4830    4.3808 O.2     1  UNL1        0.0000
    118 O          -3.6173    1.3164    0.5963 O.2     1  UNL1        0.0000
    119 O          -3.0513   -1.7997   -3.5814 O.2     1  UNL1        0.0000
    120 O          -5.8959   -0.4839   -0.1656 O.2     1  UNL1        0.0000
    121 H          -5.7771   -0.2146    2.0773 H       1  UNL1        0.0000
    122 H          -6.7296   -0.7496    4.3438 H       1  UNL1        0.0000
    123 H          -5.8597    0.3605    6.3631 H       1  UNL1        0.0000
    124 H           1.6549   -6.9543    2.7293 H       1  UNL1        0.0000
    125 H           3.4466   -6.9298    4.4867 H       1  UNL1        0.0000
    126 H           5.4020   -5.4489    4.2628 H       1  UNL1        0.0000
@<TRIPOS>BOND
     1     1    12    1
     2     1     9    1
     3     1     2    1
     4     2    11    1
     5     2    10    1
     6     3     8    1
     7     4    13    1
     8     5    45    1
     9     5    11    1
    10     6    32    1
    11     6    10    1
    12     7     1    1
    13     7     3    1
    14     8     2    1
    15     9     6    1
    16    12     5    1
    17    13     2    1
    18    14     1    1
    19    14     4    1
    20    15    24   am
    21    15    19    1
    22    16    44   am
    23    17    45    1
    24    17    57   am
    25    18    70   am
    26    18    63   am
    27    19     3    1
    28    19    20    1
    29    20    21    1
    30    20    71    1
    31    21    73    1
    32    21    74    1
    33    22    76    1
    34    22    21    1
    35    23    19    1
    36    23    22    1
    37    24   120    2
    38    25    24    1
    39    26    25   ar
    40    26    79    1
    41    27    26   ar
    42    28    29   ar
    43    28    27   ar
    44    29    30   ar
    45    30    31    1
    46    30    25   ar
    47    31    15   am
    48    32    33    1
    49    32    16    1
    50    33    83    1
    51    33    84    1
    52    34    86    1
    53    34    33    1
    54    35    36    1
    55    35    34    1
    56    36    90    1
    57    36    32    1
    58    37    16   am
    59    37    38    1
    60    38    39   ar
    61    38    43   ar
    62    39    40   ar
    63    40   122    1
    64    40    41   ar
    65    41   123    1
    66    42    41   ar
    67    42    91    1
    68    43    42   ar
    69    44    43    1
    70    44   117    2
    71    45    46    1
    72    46    92    1
    73    46    93    1
    74    47    46    1
    75    47    95    1
    76    48    97    1
    77    48    47    1
    78    49    99    1
    79    49    48    1
    80    49    45    1
    81    50    17   am
    82    51    50    1
    83    51    56   ar
    84    52    53   ar
    85    52    51   ar
    86    53    54   ar
    87    54   102    1
    88    54    55   ar
    89    55   103    1
    90    56    55   ar
    91    56    57    1
    92    57   115    2
    93    58     4    1
    94    58    18    1
    95    59   105    1
    96    59    58    1
    97    60    61    1
    98    60    59    1
    99    61   109    1
   100    61    62    1
   101    62   110    1
   102    62    58    1
   103    63    64    1
   104    64    65   ar
   105    65   124    1
   106    65    66   ar
   107    66   125    1
   108    67    66   ar
   109    67   126    1
   110    68    67   ar
   111    69    64   ar
   112    69    68   ar
   113    70    69    1
   114    72    20    1
   115    75    22    1
   116    77    23    1
   117    78    23    1
   118    80    27    1
   119    81    28    1
   120    82    29    1
   121    85    34    1
   122    87    35    1
   123    88    35    1
   124    89    36    1
   125    94    47    1
   126    96    48    1
   127    98    49    1
   128   100    52    1
   129   101    53    1
   130   104    59    1
   131   106    60    1
   132   107    60    1
   133   108    61    1
   134   111    62    1
   135   112    68    1
   136   113    70    2
   137   114    63    2
   138   116    50    2
   139   118    37    2
   140   119    31    2
   141   121    39    1
