@<TRIPOS>MOLECULE
RhRh_S-NTTL4_10_sp
 158 173 0 0 0
SMALL
GASTEIGER

@<TRIPOS>ATOM
      1 Rh          0.0013   -0.0005   -2.6733 Rh      1  UNL1        0.0000
      2 Rh          0.0027   -0.0008   -0.2835 Rh      1  UNL1        0.0000
      3 C          -1.8711   -1.8322   -1.4749 C.3     1  UNL1        0.0000
      4 C          -1.8278    1.8740   -1.4752 C.3     1  UNL1        0.0000
      5 C           1.8739    1.8320   -1.4765 C.3     1  UNL1        0.0000
      6 C           1.8304   -1.8767   -1.4782 C.3     1  UNL1        0.0000
      7 O          -1.4481    1.4533   -2.6075 O.3     1  UNL1        0.0000
      8 O          -1.4824    1.4048   -0.3445 O.3     1  UNL1        0.0000
      9 O          -1.4511   -1.4512   -2.6072 O.3     1  UNL1        0.0000
     10 O          -1.4038   -1.4851   -0.3440 O.3     1  UNL1        0.0000
     11 O           1.4503   -1.4549   -2.6099 O.3     1  UNL1        0.0000
     12 O           1.4882   -1.4067   -0.3469 O.3     1  UNL1        0.0000
     13 O           1.4536    1.4509   -2.6084 O.3     1  UNL1        0.0000
     14 O           1.4077    1.4842   -0.3453 O.3     1  UNL1        0.0000
     15 N          -2.4583    3.8753   -0.2642 N.am    1  UNL1        0.0000
     16 N          -3.8775   -2.4617   -0.2714 N.am    1  UNL1        0.0000
     17 N           2.4601   -3.8774   -0.2658 N.am    1  UNL1        0.0000
     18 N           3.8795    2.4627   -0.2730 N.am    1  UNL1        0.0000
     19 C          -2.8500    3.0081   -1.3993 C.3     1  UNL1        0.0000
     20 C          -3.4112    4.0747    0.7437 C.2     1  UNL1        0.0000
     21 C          -2.9786    4.8289    1.9409 C.ar    1  UNL1        0.0000
     22 C          -3.8966    5.1098    2.9374 C.ar    1  UNL1        0.0000
     23 C          -3.4948    5.7923    4.1025 C.ar    1  UNL1        0.0000
     24 C          -2.1794    6.1763    4.2686 C.ar    1  UNL1        0.0000
     25 C          -1.2104    5.9019    3.2708 C.ar    1  UNL1        0.0000
     26 C           0.1582    6.2562    3.4024 C.ar    1  UNL1        0.0000
     27 C           1.0630    5.9567    2.4059 C.ar    1  UNL1        0.0000
     28 C           0.6402    5.3077    1.2282 C.ar    1  UNL1        0.0000
     29 C          -0.6858    4.9499    1.0667 C.ar    1  UNL1        0.0000
     30 C          -1.6283    5.2275    2.0850 C.ar    1  UNL1        0.0000
     31 C          -1.1066    4.2549   -0.1654 C.2     1  UNL1        0.0000
     32 C          -3.2334    3.7530   -2.7123 C.3     1  UNL1        0.0000
     33 C          -2.0399    4.3522   -3.4745 C.3     1  UNL1        0.0000
     34 C          -3.9741    2.7451   -3.6158 C.3     1  UNL1        0.0000
     35 C          -4.2126    4.8857   -2.3491 C.3     1  UNL1        0.0000
     36 C          -3.0024   -2.8572   -1.3991 C.3     1  UNL1        0.0000
     37 C          -4.2602   -1.1101   -0.1814 C.2     1  UNL1        0.0000
     38 C          -4.9678   -0.6856    1.0423 C.ar    1  UNL1        0.0000
     39 C          -5.3293    0.6403    1.1952 C.ar    1  UNL1        0.0000
     40 C          -5.9915    1.0665    2.3643 C.ar    1  UNL1        0.0000
     41 C          -6.3011    0.1646    3.3603 C.ar    1  UNL1        0.0000
     42 C          -5.9436   -1.2040    3.2374 C.ar    1  UNL1        0.0000
     43 C          -6.2286   -2.1702    4.2349 C.ar    1  UNL1        0.0000
     44 C          -5.8406   -3.4855    4.0778 C.ar    1  UNL1        0.0000
     45 C          -5.1429   -3.8899    2.9226 C.ar    1  UNL1        0.0000
     46 C          -4.8516   -2.9748    1.9265 C.ar    1  UNL1        0.0000
     47 C          -5.2548   -1.6249    2.0610 C.ar    1  UNL1        0.0000
     48 C          -4.0818   -3.4098    0.7401 C.2     1  UNL1        0.0000
     49 C          -3.7389   -3.2510   -2.7137 C.3     1  UNL1        0.0000
     50 C          -2.7218   -3.9868   -3.6109 C.3     1  UNL1        0.0000
     51 C          -4.8653   -4.2377   -2.3518 C.3     1  UNL1        0.0000
     52 C          -4.3442   -2.0646   -3.4818 C.3     1  UNL1        0.0000
     53 C           2.8492   -3.0143   -1.4050 C.3     1  UNL1        0.0000
     54 C           3.4162   -4.0748    0.7396 C.2     1  UNL1        0.0000
     55 C           2.9864   -4.8236    1.9412 C.ar    1  UNL1        0.0000
     56 C           3.9076   -5.1036    2.9350 C.ar    1  UNL1        0.0000
     57 C           3.5085   -5.7808    4.1042 C.ar    1  UNL1        0.0000
     58 C           2.1928   -6.1605    4.2769 C.ar    1  UNL1        0.0000
     59 C           1.2206   -5.8873    3.2818 C.ar    1  UNL1        0.0000
     60 C          -0.1482   -6.2381    3.4197 C.ar    1  UNL1        0.0000
     61 C          -1.0559   -5.9407    2.4252 C.ar    1  UNL1        0.0000
     62 C          -0.6361   -5.2968    1.2437 C.ar    1  UNL1        0.0000
     63 C           0.6900   -4.9423    1.0761 C.ar    1  UNL1        0.0000
     64 C           1.6357   -5.2182    2.0920 C.ar    1  UNL1        0.0000
     65 C           1.1077   -4.2527   -0.1600 C.2     1  UNL1        0.0000
     66 C           3.2236   -3.7643   -2.7180 C.3     1  UNL1        0.0000
     67 C           4.2001   -4.8996   -2.3560 C.3     1  UNL1        0.0000
     68 C           2.0246   -4.3607   -3.4734 C.3     1  UNL1        0.0000
     69 C           3.9643   -2.7622   -3.6279 C.3     1  UNL1        0.0000
     70 C           3.0035    2.8592   -1.3999 C.3     1  UNL1        0.0000
     71 C           4.2617    1.1108   -0.1847 C.2     1  UNL1        0.0000
     72 C           4.9654    0.6836    1.0403 C.ar    1  UNL1        0.0000
     73 C           5.3259   -0.6428    1.1915 C.ar    1  UNL1        0.0000
     74 C           5.9834   -1.0718    2.3622 C.ar    1  UNL1        0.0000
     75 C           6.2889   -0.1724    3.3618 C.ar    1  UNL1        0.0000
     76 C           5.9319    1.1964    3.2408 C.ar    1  UNL1        0.0000
     77 C           6.2120    2.1600    4.2423 C.ar    1  UNL1        0.0000
     78 C           5.8246    3.4756    4.0869 C.ar    1  UNL1        0.0000
     79 C           5.1326    3.8831    2.9294 C.ar    1  UNL1        0.0000
     80 C           4.8460    2.9707    1.9295 C.ar    1  UNL1        0.0000
     81 C           5.2485    1.6204    2.0624 C.ar    1  UNL1        0.0000
     82 C           4.0812    3.4088    0.7409 C.2     1  UNL1        0.0000
     83 C           3.7386    3.2562   -2.7141 C.3     1  UNL1        0.0000
     84 C           4.8638    4.2439   -2.3511 C.3     1  UNL1        0.0000
     85 C           4.3451    2.0718   -3.4846 C.3     1  UNL1        0.0000
     86 C           2.7198    3.9920   -3.6093 C.3     1  UNL1        0.0000
     87 H          -3.7625    2.5185   -1.0546 H       1  UNL1        0.0000
     88 H          -4.9234    4.7915    2.7997 H       1  UNL1        0.0000
     89 H          -4.2260    6.0099    4.8740 H       1  UNL1        0.0000
     90 H           0.4817    6.7619    4.3078 H       1  UNL1        0.0000
     91 H           2.1120    6.2099    2.5110 H       1  UNL1        0.0000
     92 H           1.3587    5.0773    0.4537 H       1  UNL1        0.0000
     93 H          -1.2952    3.5924   -3.7109 H       1  UNL1        0.0000
     94 H          -1.5472    5.1378   -2.8989 H       1  UNL1        0.0000
     95 H          -2.4019    4.7931   -4.4100 H       1  UNL1        0.0000
     96 H          -4.8277    2.2992   -3.0936 H       1  UNL1        0.0000
     97 H          -3.3144    1.9393   -3.9379 H       1  UNL1        0.0000
     98 H          -4.3545    3.2600   -4.5038 H       1  UNL1        0.0000
     99 H          -4.5647    5.3707   -3.2647 H       1  UNL1        0.0000
    100 H          -3.7289    5.6505   -1.7338 H       1  UNL1        0.0000
    101 H          -5.0803    4.5090   -1.8011 H       1  UNL1        0.0000
    102 H          -2.5114   -3.7659   -1.0463 H       1  UNL1        0.0000
    103 H          -5.0916    1.3563    0.4205 H       1  UNL1        0.0000
    104 H          -6.7571   -1.8571    5.1309 H       1  UNL1        0.0000
    105 H          -6.0666   -4.2146    4.8489 H       1  UNL1        0.0000
    106 H          -4.8210   -4.9166    2.7923 H       1  UNL1        0.0000
    107 H          -1.9216   -3.3211   -3.9344 H       1  UNL1        0.0000
    108 H          -3.2310   -4.3765   -4.4982 H       1  UNL1        0.0000
    109 H          -2.2688   -4.8333   -3.0834 H       1  UNL1        0.0000
    110 H          -4.4842   -5.1002   -1.7987 H       1  UNL1        0.0000
    111 H          -5.3433   -4.5973   -3.2681 H       1  UNL1        0.0000
    112 H          -5.6370   -3.7578   -1.7420 H       1  UNL1        0.0000
    113 H          -3.5890   -1.3152   -3.7182 H       1  UNL1        0.0000
    114 H          -5.1354   -1.5756   -2.9105 H       1  UNL1        0.0000
    115 H          -4.7797   -2.4328   -4.4175 H       1  UNL1        0.0000
    116 H           3.7655   -2.5275   -1.0660 H       1  UNL1        0.0000
    117 H           4.9349   -4.7891    2.7920 H       1  UNL1        0.0000
    118 H           4.2423   -5.9978    4.8734 H       1  UNL1        0.0000
    119 H           1.8840   -6.6736    5.1832 H       1  UNL1        0.0000
    120 H          -1.3570   -5.0681    0.4708 H       1  UNL1        0.0000
    121 H           5.0716   -4.5248   -1.8127 H       1  UNL1        0.0000
    122 H           4.5467   -5.3883   -3.2717 H       1  UNL1        0.0000
    123 H           3.7162   -5.6612   -1.7368 H       1  UNL1        0.0000
    124 H           1.5315   -5.1431   -2.8938 H       1  UNL1        0.0000
    125 H           2.3808   -4.8050   -4.4095 H       1  UNL1        0.0000
    126 H           1.2817   -3.5987   -3.7084 H       1  UNL1        0.0000
    127 H           4.8218   -2.3179   -3.1108 H       1  UNL1        0.0000
    128 H           3.3062   -1.9550   -3.9499 H       1  UNL1        0.0000
    129 H           4.3390   -3.2814   -4.5158 H       1  UNL1        0.0000
    130 H           2.5112    3.7664   -1.0452 H       1  UNL1        0.0000
    131 H           5.0908   -1.3568    0.4143 H       1  UNL1        0.0000
    132 H           6.2382   -2.1211    2.4594 H       1  UNL1        0.0000
    133 H           6.8015   -0.5006    4.2618 H       1  UNL1        0.0000
    134 H           4.8112    4.9102    2.8003 H       1  UNL1        0.0000
    135 H           5.6365    3.7641   -1.7427 H       1  UNL1        0.0000
    136 H           4.4817    5.1048   -1.7961 H       1  UNL1        0.0000
    137 H           5.3406    4.6060   -3.2671 H       1  UNL1        0.0000
    138 H           5.1373    1.5830   -2.9146 H       1  UNL1        0.0000
    139 H           4.7795    2.4423   -4.4199 H       1  UNL1        0.0000
    140 H           3.5908    1.3218   -3.7218 H       1  UNL1        0.0000
    141 H           1.9195    3.3261   -3.9324 H       1  UNL1        0.0000
    142 H           3.2275    4.3829   -4.4969 H       1  UNL1        0.0000
    143 H           2.2670    4.8376   -3.0803 H       1  UNL1        0.0000
    144 O          -4.5556    3.6441    0.6303 O.2     1  UNL1        0.0000
    145 O          -0.3262    3.9957   -1.0716 O.2     1  UNL1        0.0000
    146 O           3.6437    4.5517    0.6401 O.2     1  UNL1        0.0000
    147 O           3.9982    0.3357   -1.0941 O.2     1  UNL1        0.0000
    148 O          -3.6431   -4.5522    0.6385 O.2     1  UNL1        0.0000
    149 O          -3.9946   -0.3331   -1.0886 O.2     1  UNL1        0.0000
    150 O           4.5609   -3.6464    0.6209 O.2     1  UNL1        0.0000
    151 O           0.3244   -3.9953   -1.0643 O.2     1  UNL1        0.0000
    152 H          -0.4695   -6.7400    4.3281 H       1  UNL1        0.0000
    153 H           6.7363    1.8446    5.1400 H       1  UNL1        0.0000
    154 H          -2.1048   -6.1921    2.5349 H       1  UNL1        0.0000
    155 H           6.0468    4.2027    4.8610 H       1  UNL1        0.0000
    156 H          -1.8685    6.6935    5.1719 H       1  UNL1        0.0000
    157 H          -6.8177    0.4905    4.2588 H       1  UNL1        0.0000
    158 H          -6.2470    2.1155    2.4630 H       1  UNL1        0.0000
@<TRIPOS>BOND
     1     1    11    1
     2     1    13    1
     3     1     7    1
     4     1     9    1
     5     1     2    1
     6     3    36    1
     7     3    10    1
     8     4    19    1
     9     4     8    1
    10     5    70    1
    11     5    14    1
    12     6    53    1
    13     6    12    1
    14     7     4    1
    15     8     2    1
    16     9     3    1
    17    10     2    1
    18    11     6    1
    19    12     2    1
    20    13     5    1
    21    14     2    1
    22    15    31   am
    23    15    20   am
    24    16    37   am
    25    16    48   am
    26    17    65   am
    27    17    54   am
    28    18    71   am
    29    18    82   am
    30    19    87    1
    31    19    15    1
    32    20    21    1
    33    21    30   ar
    34    21    22   ar
    35    22    23   ar
    36    23    24   ar
    37    23    89    1
    38    24   156    1
    39    25    26   ar
    40    25    24   ar
    41    26    90    1
    42    27    91    1
    43    27    26   ar
    44    28    27   ar
    45    29    28   ar
    46    29    30   ar
    47    30    25   ar
    48    31    29    1
    49    32    35    1
    50    32    19    1
    51    33    94    1
    52    33    32    1
    53    34    96    1
    54    34    32    1
    55    35   101    1
    56    35   100    1
    57    36   102    1
    58    36    16    1
    59    37    38    1
    60    38    39   ar
    61    38    47   ar
    62    39    40   ar
    63    40   158    1
    64    40    41   ar
    65    41   157    1
    66    42    41   ar
    67    42    43   ar
    68    43   104    1
    69    44    43   ar
    70    44   105    1
    71    45    44   ar
    72    46    47   ar
    73    46    45   ar
    74    47    42   ar
    75    48    46    1
    76    49    51    1
    77    49    36    1
    78    50   109    1
    79    50    49    1
    80    51   110    1
    81    51   112    1
    82    52   114    1
    83    52    49    1
    84    53   116    1
    85    53    17    1
    86    54    55    1
    87    55    64   ar
    88    55    56   ar
    89    56    57   ar
    90    57    58   ar
    91    57   118    1
    92    58   119    1
    93    59    60   ar
    94    59    58   ar
    95    60   152    1
    96    61   154    1
    97    61    60   ar
    98    62    61   ar
    99    63    62   ar
   100    63    64   ar
   101    64    59   ar
   102    65    63    1
   103    66    67    1
   104    66    53    1
   105    67   121    1
   106    67   123    1
   107    68   124    1
   108    68    66    1
   109    69   127    1
   110    69    66    1
   111    70   130    1
   112    70    18    1
   113    71    72    1
   114    72    73   ar
   115    72    81   ar
   116    73    74   ar
   117    74   132    1
   118    74    75   ar
   119    75   133    1
   120    76    75   ar
   121    76    77   ar
   122    77   153    1
   123    78    77   ar
   124    78   155    1
   125    79    78   ar
   126    80    81   ar
   127    80    79   ar
   128    81    76   ar
   129    82    80    1
   130    83    84    1
   131    83    70    1
   132    84   136    1
   133    84   135    1
   134    85   138    1
   135    85    83    1
   136    86   143    1
   137    86    83    1
   138    88    22    1
   139    92    28    1
   140    93    33    1
   141    95    33    1
   142    97    34    1
   143    98    34    1
   144    99    35    1
   145   103    39    1
   146   106    45    1
   147   107    50    1
   148   108    50    1
   149   111    51    1
   150   113    52    1
   151   115    52    1
   152   117    56    1
   153   120    62    1
   154   122    67    1
   155   125    68    1
   156   126    68    1
   157   128    69    1
   158   129    69    1
   159   131    73    1
   160   134    79    1
   161   137    84    1
   162   139    85    1
   163   140    85    1
   164   141    86    1
   165   142    86    1
   166   144    20    2
   167   145    31    2
   168   146    82    2
   169   147    71    2
   170   148    48    2
   171   149    37    2
   172   150    54    2
   173   151    65    2
