@<TRIPOS>MOLECULE
RhRh_ACH4_11_sp
 138 153 0 0 0
SMALL
GASTEIGER

@<TRIPOS>ATOM
      1 Rh         -0.3544   -0.5224   -1.8281 Rh      1  UNL1        0.0000
      2 Rh         -0.3569   -0.2990    0.5495 Rh      1  UNL1        0.0000
      3 C           1.2482    1.6671   -0.8263 C.3     1  UNL1        0.0000
      4 C          -2.3813    1.2521   -0.7836 C.3     1  UNL1        0.0000
      5 C          -1.9601   -2.4842   -0.4463 C.3     1  UNL1        0.0000
      6 C           1.7546   -1.9746   -0.5104 C.3     1  UNL1        0.0000
      7 O           1.3344   -1.6878   -1.6715 O.3     1  UNL1        0.0000
      8 O           1.1750   -1.6923    0.5851 O.3     1  UNL1        0.0000
      9 O          -1.5009   -2.2197   -1.5955 O.3     1  UNL1        0.0000
     10 O          -1.7506   -1.8169    0.6160 O.3     1  UNL1        0.0000
     11 O          -1.8653    1.0749    0.3672 O.3     1  UNL1        0.0000
     12 O          -2.0262    0.6865   -1.8582 O.3     1  UNL1        0.0000
     13 O           0.9975    1.2379    0.3444 O.3     1  UNL1        0.0000
     14 O           0.8183    1.1608   -1.9069 O.3     1  UNL1        0.0000
     15 N           3.6929   -2.4103    0.8707 N.am    1  UNL1        0.0000
     16 N          -4.1254   -3.3396    0.2389 N.am    1  UNL1        0.0000
     17 N          -3.2547    3.3322    0.0932 N.am    1  UNL1        0.0000
     18 N           3.5623    2.4741   -0.8690 N.am    1  UNL1        0.0000
     19 C           3.0777   -2.7700   -0.4275 C.3     1  UNL1        0.0000
     20 C           4.0163   -2.3616   -1.5897 C.3     1  UNL1        0.0000
     21 C           5.2783   -3.2222   -1.6363 C.3     1  UNL1        0.0000
     22 C           4.9185   -4.6975   -1.8349 C.3     1  UNL1        0.0000
     23 C           3.9794   -5.1763   -0.7237 C.3     1  UNL1        0.0000
     24 C           2.7458   -4.2773   -0.5586 C.3     1  UNL1        0.0000
     25 C           3.8628   -1.0399    1.1571 C.2     1  UNL1        0.0000
     26 C           4.2809   -0.9317    2.5713 C.ar    1  UNL1        0.0000
     27 C           4.6077    0.1842    3.3292 C.ar    1  UNL1        0.0000
     28 C           4.9449   -0.0426    4.6698 C.ar    1  UNL1        0.0000
     29 C           4.9404   -1.3339    5.2134 C.ar    1  UNL1        0.0000
     30 C           4.5924   -2.4471    4.4374 C.ar    1  UNL1        0.0000
     31 C           4.2661   -2.2158    3.1106 C.ar    1  UNL1        0.0000
     32 C           3.8221   -3.1737    2.0547 C.2     1  UNL1        0.0000
     33 C          -2.7980   -3.7753   -0.2591 C.3     1  UNL1        0.0000
     34 C          -2.0513   -4.6451    0.7779 C.3     1  UNL1        0.0000
     35 C          -0.7028   -5.1035    0.2165 C.3     1  UNL1        0.0000
     36 C          -0.8926   -5.9423   -1.0513 C.3     1  UNL1        0.0000
     37 C          -1.6697   -5.1619   -2.1178 C.3     1  UNL1        0.0000
     38 C          -2.9779   -4.5638   -1.5737 C.3     1  UNL1        0.0000
     39 C          -4.8459   -2.3409   -0.4455 C.2     1  UNL1        0.0000
     40 C          -6.1212   -2.1514    0.2901 C.ar    1  UNL1        0.0000
     41 C          -7.1940   -1.3134    0.0284 C.ar    1  UNL1        0.0000
     42 C          -8.2696   -1.3504    0.9239 C.ar    1  UNL1        0.0000
     43 C          -8.2587   -2.2084    2.0309 C.ar    1  UNL1        0.0000
     44 C          -7.1755   -3.0620    2.2747 C.ar    1  UNL1        0.0000
     45 C          -6.1152   -3.0122    1.3837 C.ar    1  UNL1        0.0000
     46 C          -4.8490   -3.8026    1.3648 C.2     1  UNL1        0.0000
     47 C          -3.5831    2.2151   -0.8304 C.3     1  UNL1        0.0000
     48 C          -3.8287    2.7477   -2.2595 C.3     1  UNL1        0.0000
     49 C          -5.1056    3.5876   -2.3459 C.3     1  UNL1        0.0000
     50 C          -6.3319    2.7755   -1.9172 C.3     1  UNL1        0.0000
     51 C          -6.1339    2.2101   -0.5080 C.3     1  UNL1        0.0000
     52 C          -4.8307    1.4102   -0.3869 C.3     1  UNL1        0.0000
     53 C          -2.1146    4.1257   -0.1570 C.2     1  UNL1        0.0000
     54 C          -1.9358    5.0140    1.0181 C.ar    1  UNL1        0.0000
     55 C          -1.0225    6.0323    1.2488 C.ar    1  UNL1        0.0000
     56 C          -1.0772    6.6699    2.4937 C.ar    1  UNL1        0.0000
     57 C          -2.0170    6.2903    3.4608 C.ar    1  UNL1        0.0000
     58 C          -2.9360    5.2633    3.2129 C.ar    1  UNL1        0.0000
     59 C          -2.8730    4.6413    1.9758 C.ar    1  UNL1        0.0000
     60 C          -3.6967    3.5264    1.4273 C.2     1  UNL1        0.0000
     61 C           2.1407    2.9306   -0.9356 C.3     1  UNL1        0.0000
     62 C           1.8725    3.6604   -2.2713 C.3     1  UNL1        0.0000
     63 C           2.6463    4.9789   -2.3610 C.3     1  UNL1        0.0000
     64 C           2.2640    5.9230   -1.2165 C.3     1  UNL1        0.0000
     65 C           2.4804    5.2414    0.1386 C.3     1  UNL1        0.0000
     66 C           1.7694    3.8864    0.2195 C.3     1  UNL1        0.0000
     67 C           4.4051    2.4759    0.2656 C.2     1  UNL1        0.0000
     68 C           5.6613    1.7839   -0.1376 C.ar    1  UNL1        0.0000
     69 C           6.8047    1.5186    0.5991 C.ar    1  UNL1        0.0000
     70 C           7.8039    0.7575   -0.0201 C.ar    1  UNL1        0.0000
     71 C           7.6483    0.2870   -1.3307 C.ar    1  UNL1        0.0000
     72 C           6.4889    0.5667   -2.0641 C.ar    1  UNL1        0.0000
     73 C           5.5104    1.3228   -1.4379 C.ar    1  UNL1        0.0000
     74 C           4.1580    1.7126   -1.9134 C.2     1  UNL1        0.0000
     75 H           3.4470   -2.4894   -2.5141 H       1  UNL1        0.0000
     76 H           4.2558   -1.3034   -1.5135 H       1  UNL1        0.0000
     77 H           5.9241   -2.8667   -2.4470 H       1  UNL1        0.0000
     78 H           5.8480   -3.0975   -0.7057 H       1  UNL1        0.0000
     79 H           5.8204   -5.3197   -1.8570 H       1  UNL1        0.0000
     80 H           4.4288   -4.8144   -2.8116 H       1  UNL1        0.0000
     81 H           3.6347   -6.1969   -0.9257 H       1  UNL1        0.0000
     82 H           4.5182   -5.2147    0.2264 H       1  UNL1        0.0000
     83 H           2.1525   -4.6067    0.2928 H       1  UNL1        0.0000
     84 H           2.1166   -4.3539   -1.4531 H       1  UNL1        0.0000
     85 H           5.2072    0.7987    5.3036 H       1  UNL1        0.0000
     86 H           5.2024   -1.4712    6.2578 H       1  UNL1        0.0000
     87 H           4.5691   -3.4497    4.8502 H       1  UNL1        0.0000
     88 H          -1.9228   -4.0790    1.7011 H       1  UNL1        0.0000
     89 H          -2.6658   -5.5151    1.0119 H       1  UNL1        0.0000
     90 H          -0.0746   -4.2327    0.0011 H       1  UNL1        0.0000
     91 H          -0.1757   -5.6789    0.9848 H       1  UNL1        0.0000
     92 H          -1.4395   -6.8586   -0.7894 H       1  UNL1        0.0000
     93 H           0.0781   -6.2585   -1.4503 H       1  UNL1        0.0000
     94 H          -1.9093   -5.8128   -2.9662 H       1  UNL1        0.0000
     95 H          -1.0445   -4.3525   -2.5032 H       1  UNL1        0.0000
     96 H          -3.6853   -5.3715   -1.3483 H       1  UNL1        0.0000
     97 H          -3.4376   -3.9161   -2.3223 H       1  UNL1        0.0000
     98 H          -7.1938   -0.6608   -0.8367 H       1  UNL1        0.0000
     99 H          -9.1268   -0.7058    0.7584 H       1  UNL1        0.0000
    100 H          -9.1071   -2.2127    2.7077 H       1  UNL1        0.0000
    101 H          -3.9193    1.8688   -2.9040 H       1  UNL1        0.0000
    102 H          -2.9589    3.3050   -2.6029 H       1  UNL1        0.0000
    103 H          -5.2246    3.9552   -3.3709 H       1  UNL1        0.0000
    104 H          -5.0094    4.4740   -1.7047 H       1  UNL1        0.0000
    105 H          -7.2369    3.3926   -1.9558 H       1  UNL1        0.0000
    106 H          -6.4788    1.9506   -2.6284 H       1  UNL1        0.0000
    107 H          -6.9698    1.5588   -0.2303 H       1  UNL1        0.0000
    108 H          -6.1308    3.0234    0.2226 H       1  UNL1        0.0000
    109 H          -4.6978    1.0365    0.6272 H       1  UNL1        0.0000
    110 H          -4.8642    0.5453   -1.0570 H       1  UNL1        0.0000
    111 H          -0.3785    7.4701    2.7159 H       1  UNL1        0.0000
    112 H          -2.0298    6.8014    4.4181 H       1  UNL1        0.0000
    113 H          -3.6675    4.9564    3.9524 H       1  UNL1        0.0000
    114 H           0.7982    3.8644   -2.2966 H       1  UNL1        0.0000
    115 H           2.1006    3.0053   -3.1074 H       1  UNL1        0.0000
    116 H           2.4442    5.4477   -3.3303 H       1  UNL1        0.0000
    117 H           3.7260    4.7803   -2.3298 H       1  UNL1        0.0000
    118 H           2.8379    6.8554   -1.2721 H       1  UNL1        0.0000
    119 H           1.2042    6.1926   -1.3287 H       1  UNL1        0.0000
    120 H           3.5511    5.1075    0.3209 H       1  UNL1        0.0000
    121 H           2.1126    5.8758    0.9543 H       1  UNL1        0.0000
    122 H           1.9420    3.4102    1.1800 H       1  UNL1        0.0000
    123 H           0.6932    4.0403    0.1128 H       1  UNL1        0.0000
    124 H           6.9079    1.8759    1.6178 H       1  UNL1        0.0000
    125 H           8.7128    0.5215    0.5244 H       1  UNL1        0.0000
    126 H           8.4382   -0.3064   -1.7801 H       1  UNL1        0.0000
    127 O           3.6159   -4.3615    2.1965 O.2     1  UNL1        0.0000
    128 O           3.6533   -0.1445    0.3626 O.2     1  UNL1        0.0000
    129 O          -4.4565   -1.7576   -1.4399 O.2     1  UNL1        0.0000
    130 O          -4.5301   -4.6738    2.1459 O.2     1  UNL1        0.0000
    131 O          -1.3989    4.0434   -1.1391 O.2     1  UNL1        0.0000
    132 O          -4.5723    2.9266    2.0144 O.2     1  UNL1        0.0000
    133 O           3.6547    1.4195   -2.9769 O.2     1  UNL1        0.0000
    134 O           4.1818    2.9516    1.3634 O.2     1  UNL1        0.0000
    135 H           4.5837    1.1812    2.9005 H       1  UNL1        0.0000
    136 H          -7.1568   -3.7376    3.1228 H       1  UNL1        0.0000
    137 H          -0.2975    6.3169    0.4952 H       1  UNL1        0.0000
    138 H           6.3463    0.2015   -3.0753 H       1  UNL1        0.0000
@<TRIPOS>BOND
     1     1     7    1
     2     1     9    1
     3     1     2    1
     4     2     8    1
     5     2    10    1
     6     3    13    1
     7     4    11    1
     8     5    33    1
     9     5    10    1
    10     6    19    1
    11     6     8    1
    12     7     6    1
    13     9     5    1
    14    11     2    1
    15    12     1    1
    16    12     4    1
    17    13     2    1
    18    14     1    1
    19    14     3    1
    20    15    25   am
    21    15    32   am
    22    16    46   am
    23    17    60   am
    24    18    67   am
    25    19    15    1
    26    20    76    1
    27    20    19    1
    28    21    20    1
    29    21    78    1
    30    22    21    1
    31    22    23    1
    32    23    24    1
    33    23    82    1
    34    24    19    1
    35    24    83    1
    36    25    26    1
    37    26    31   ar
    38    26    27   ar
    39    27    28   ar
    40    28    29   ar
    41    28    85    1
    42    29    86    1
    43    30    87    1
    44    30    29   ar
    45    31    30   ar
    46    32   127    2
    47    32    31    1
    48    33    16    1
    49    33    34    1
    50    34    89    1
    51    34    88    1
    52    35    34    1
    53    35    91    1
    54    36    92    1
    55    36    35    1
    56    37    38    1
    57    37    36    1
    58    38    96    1
    59    38    33    1
    60    39    16   am
    61    39    40    1
    62    40    45   ar
    63    41    40   ar
    64    41    42   ar
    65    42    43   ar
    66    43    44   ar
    67    43   100    1
    68    44   136    1
    69    45    44   ar
    70    46    45    1
    71    46   130    2
    72    47     4    1
    73    47    52    1
    74    47    17    1
    75    48    47    1
    76    49    48    1
    77    49    50    1
    78    49   104    1
    79    50    51    1
    80    51    52    1
    81    51   107    1
    82    51   108    1
    83    52   109    1
    84    53    17   am
    85    53    54    1
    86    54    55   ar
    87    54    59   ar
    88    55    56   ar
    89    56   111    1
    90    56    57   ar
    91    57   112    1
    92    58    57   ar
    93    58   113    1
    94    59    58   ar
    95    60    59    1
    96    60   132    2
    97    61    18    1
    98    61     3    1
    99    61    66    1
   100    62    61    1
   101    63   117    1
   102    63    62    1
   103    63    64    1
   104    64    65    1
   105    65    66    1
   106    65   120    1
   107    65   121    1
   108    66   122    1
   109    67   134    2
   110    68    67    1
   111    68    69   ar
   112    69   124    1
   113    70   125    1
   114    70    69   ar
   115    71    70   ar
   116    72    73   ar
   117    72    71   ar
   118    73    68   ar
   119    74    73    1
   120    74    18   am
   121    75    20    1
   122    77    21    1
   123    79    22    1
   124    80    22    1
   125    81    23    1
   126    84    24    1
   127    90    35    1
   128    93    36    1
   129    94    37    1
   130    95    37    1
   131    97    38    1
   132    98    41    1
   133    99    42    1
   134   101    48    1
   135   102    48    1
   136   103    49    1
   137   105    50    1
   138   106    50    1
   139   110    52    1
   140   114    62    1
   141   115    62    1
   142   116    63    1
   143   118    64    1
   144   119    64    1
   145   123    66    1
   146   126    71    1
   147   128    25    2
   148   129    39    2
   149   131    53    2
   150   133    74    2
   151   135    27    1
   152   137    55    1
   153   138    72    1
