@<TRIPOS>MOLECULE
RhRh_MeMePh-O2C4_C4_sp
 94 101 0 0 0
SMALL
GASTEIGER

@<TRIPOS>ATOM
      1 Rh         -0.0297   -0.0457    1.2554 Rh      1  UNL1        0.0000
      2 Rh         -0.0657    0.0561   -1.1310 Rh      1  UNL1        0.0000
      3 C          -2.5023   -0.9462    0.0688 C.3     1  UNL1        0.0000
      4 C           0.8946   -2.4502   -0.0648 C.3     1  UNL1        0.0000
      5 C           2.4281    0.9026    0.0631 C.3     1  UNL1        0.0000
      6 C          -0.9659    2.4707    0.1743 C.3     1  UNL1        0.0000
      7 O          -0.6955    1.9037    1.2830 O.3     1  UNL1        0.0000
      8 O          -0.7521    1.9807   -0.9782 O.3     1  UNL1        0.0000
      9 O           1.9131    0.6220    1.1934 O.3     1  UNL1        0.0000
     10 O           1.8718    0.7273   -1.0668 O.3     1  UNL1        0.0000
     11 O           0.6293   -1.9855    1.0912 O.3     1  UNL1        0.0000
     12 O           0.6394   -1.8728   -1.1678 O.3     1  UNL1        0.0000
     13 O          -1.9649   -0.7259    1.2006 O.3     1  UNL1        0.0000
     14 O          -2.0030   -0.6364   -1.0598 O.3     1  UNL1        0.0000
     15 C          -1.6805    3.8270    0.2197 C.3     1  UNL1        0.0000
     16 C          -3.1726    3.4869    0.0344 C.ar    1  UNL1        0.0000
     17 C          -3.8021    2.6298    0.9507 C.ar    1  UNL1        0.0000
     18 C          -5.1532    2.3156    0.8228 C.ar    1  UNL1        0.0000
     19 C          -5.9016    2.8380   -0.2338 C.ar    1  UNL1        0.0000
     20 C          -5.2830    3.6790   -1.1559 C.ar    1  UNL1        0.0000
     21 C          -3.9306    4.0003   -1.0222 C.ar    1  UNL1        0.0000
     22 C           3.8061    1.5746    0.0522 C.3     1  UNL1        0.0000
     23 C           3.5130    3.0734   -0.1477 C.ar    1  UNL1        0.0000
     24 C           4.0628    3.8117   -1.1993 C.ar    1  UNL1        0.0000
     25 C           3.7898    5.1746   -1.3358 C.ar    1  UNL1        0.0000
     26 C           2.9602    5.8219   -0.4230 C.ar    1  UNL1        0.0000
     27 C           2.4003    5.0927    0.6280 C.ar    1  UNL1        0.0000
     28 C           2.6696    3.7326    0.7607 C.ar    1  UNL1        0.0000
     29 C           1.6612   -3.7786   -0.1241 C.3     1  UNL1        0.0000
     30 C           3.1420   -3.3743    0.0434 C.ar    1  UNL1        0.0000
     31 C           4.0815   -3.5571   -0.9773 C.ar    1  UNL1        0.0000
     32 C           5.4144   -3.1782   -0.8031 C.ar    1  UNL1        0.0000
     33 C           5.8333   -2.6078    0.3969 C.ar    1  UNL1        0.0000
     34 C           4.9036   -2.4133    1.4203 C.ar    1  UNL1        0.0000
     35 C           3.5730   -2.7839    1.2417 C.ar    1  UNL1        0.0000
     36 C          -3.8224   -1.7292    0.0609 C.3     1  UNL1        0.0000
     37 C          -3.3883   -3.1994   -0.1217 C.ar    1  UNL1        0.0000
     38 C          -3.5793   -4.1602    0.8774 C.ar    1  UNL1        0.0000
     39 C          -3.1648   -5.4809    0.6924 C.ar    1  UNL1        0.0000
     40 C          -2.5521   -5.8663   -0.4980 C.ar    1  UNL1        0.0000
     41 C          -2.3512   -4.9152   -1.5002 C.ar    1  UNL1        0.0000
     42 C          -2.7545   -3.5959   -1.3095 C.ar    1  UNL1        0.0000
     43 C           1.2122   -4.6991    1.0294 C.3     1  UNL1        0.0000
     44 C           1.3816   -4.4813   -1.4591 C.3     1  UNL1        0.0000
     45 C          -4.5756   -1.4903    1.3764 C.3     1  UNL1        0.0000
     46 C          -4.7066   -1.2679   -1.1154 C.3     1  UNL1        0.0000
     47 C          -1.4646    4.5126    1.5819 C.3     1  UNL1        0.0000
     48 C          -1.1188    4.7224   -0.8963 C.3     1  UNL1        0.0000
     49 C           4.6430    0.9558   -1.0794 C.3     1  UNL1        0.0000
     50 C           4.5314    1.3637    1.3944 C.3     1  UNL1        0.0000
     51 H          -3.2268    2.1955    1.7615 H       1  UNL1        0.0000
     52 H          -5.6251    1.6666    1.5540 H       1  UNL1        0.0000
     53 H          -6.9542    2.5921   -0.3343 H       1  UNL1        0.0000
     54 H          -5.8506    4.0903   -1.9852 H       1  UNL1        0.0000
     55 H          -3.4720    4.6547   -1.7531 H       1  UNL1        0.0000
     56 H           4.7083    3.3293   -1.9232 H       1  UNL1        0.0000
     57 H           4.2287    5.7279   -2.1606 H       1  UNL1        0.0000
     58 H           2.7498    6.8817   -0.5281 H       1  UNL1        0.0000
     59 H           1.7539    5.5853    1.3480 H       1  UNL1        0.0000
     60 H           2.2107    3.1728    1.5693 H       1  UNL1        0.0000
     61 H           3.7828   -3.9981   -1.9200 H       1  UNL1        0.0000
     62 H           6.1235   -3.3322   -1.6109 H       1  UNL1        0.0000
     63 H           6.8697   -2.3153    0.5341 H       1  UNL1        0.0000
     64 H           5.2136   -1.9700    2.3617 H       1  UNL1        0.0000
     65 H           2.8572   -2.5972    2.0331 H       1  UNL1        0.0000
     66 H          -4.0537   -3.8880    1.8119 H       1  UNL1        0.0000
     67 H          -3.3254   -6.2072    1.4835 H       1  UNL1        0.0000
     68 H          -2.2339   -6.8938   -0.6446 H       1  UNL1        0.0000
     69 H          -1.8771   -5.1994   -2.4348 H       1  UNL1        0.0000
     70 H          -2.5591   -2.8622   -2.0822 H       1  UNL1        0.0000
     71 H           1.8011   -5.6204    1.0069 H       1  UNL1        0.0000
     72 H           1.3420   -4.2252    2.0018 H       1  UNL1        0.0000
     73 H           0.1550   -4.9570    0.9155 H       1  UNL1        0.0000
     74 H           0.3214   -4.7325   -1.5206 H       1  UNL1        0.0000
     75 H           1.6255   -3.8482   -2.3126 H       1  UNL1        0.0000
     76 H           1.9585   -5.4084   -1.5216 H       1  UNL1        0.0000
     77 H          -5.4972   -2.0790    1.3933 H       1  UNL1        0.0000
     78 H          -3.9700   -1.7448    2.2461 H       1  UNL1        0.0000
     79 H          -4.8432   -0.4351    1.4537 H       1  UNL1        0.0000
     80 H          -4.1969   -1.3722   -2.0724 H       1  UNL1        0.0000
     81 H          -5.6211   -1.8672   -1.1377 H       1  UNL1        0.0000
     82 H          -4.9793   -0.2157   -0.9913 H       1  UNL1        0.0000
     83 H          -2.0052    5.4630    1.5971 H       1  UNL1        0.0000
     84 H          -1.8201    3.8963    2.4074 H       1  UNL1        0.0000
     85 H          -0.4019    4.7119    1.7424 H       1  UNL1        0.0000
     86 H          -1.6208    5.6942   -0.8882 H       1  UNL1        0.0000
     87 H          -0.0515    4.8900   -0.7334 H       1  UNL1        0.0000
     88 H          -1.2405    4.2636   -1.8779 H       1  UNL1        0.0000
     89 H           5.6349    1.4156   -1.1101 H       1  UNL1        0.0000
     90 H           4.7743   -0.1142   -0.8977 H       1  UNL1        0.0000
     91 H           4.1597    1.0801   -2.0492 H       1  UNL1        0.0000
     92 H           5.4937    1.8828    1.3665 H       1  UNL1        0.0000
     93 H           3.9520    1.7516    2.2323 H       1  UNL1        0.0000
     94 H           4.7102    0.2997    1.5641 H       1  UNL1        0.0000
@<TRIPOS>BOND
     1     1     7    1
     2     2    10    1
     3     2    14    1
     4     2     8    1
     5     2     1    1
     6     3    13    1
     7     4    11    1
     8     5     9    1
     9     6    15    1
    10     6     7    1
    11     8     6    1
    12     9     1    1
    13    10     5    1
    14    11     1    1
    15    12     2    1
    16    12     4    1
    17    13     1    1
    18    14     3    1
    19    15    47    1
    20    16    15    1
    21    16    17   ar
    22    17    51    1
    23    18    17   ar
    24    18    52    1
    25    19    18   ar
    26    20    21   ar
    27    20    19   ar
    28    21    16   ar
    29    22     5    1
    30    22    50    1
    31    23    22    1
    32    23    28   ar
    33    24    23   ar
    34    25    24   ar
    35    25    26   ar
    36    26    27   ar
    37    27    28   ar
    38    27    59    1
    39    28    60    1
    40    29     4    1
    41    29    30    1
    42    29    43    1
    43    30    35   ar
    44    31    32   ar
    45    31    30   ar
    46    32    33   ar
    47    33    63    1
    48    33    34   ar
    49    34    64    1
    50    35    34   ar
    51    35    65    1
    52    36     3    1
    53    36    45    1
    54    37    36    1
    55    37    38   ar
    56    38    66    1
    57    39    38   ar
    58    39    67    1
    59    40    39   ar
    60    41    42   ar
    61    41    40   ar
    62    42    37   ar
    63    43    72    1
    64    44    29    1
    65    45    77    1
    66    45    79    1
    67    45    78    1
    68    46    82    1
    69    46    36    1
    70    47    83    1
    71    47    85    1
    72    47    84    1
    73    48    86    1
    74    48    87    1
    75    48    15    1
    76    49    90    1
    77    49    22    1
    78    50    94    1
    79    50    93    1
    80    53    19    1
    81    54    20    1
    82    55    21    1
    83    56    24    1
    84    57    25    1
    85    58    26    1
    86    61    31    1
    87    62    32    1
    88    68    40    1
    89    69    41    1
    90    70    42    1
    91    71    43    1
    92    73    43    1
    93    74    44    1
    94    75    44    1
    95    76    44    1
    96    80    46    1
    97    81    46    1
    98    88    48    1
    99    89    49    1
   100    91    49    1
   101    92    50    1
