@<TRIPOS>MOLECULE
RhRh_S-pBrTPCP_C4-2_4_sp
 166 185 0 0 0
SMALL
GASTEIGER

@<TRIPOS>ATOM
      1 Rh         -0.5182    0.2871    1.5630 Rh      1  UNL1        0.0000
      2 Rh          0.0340    0.5572   -0.7461 Rh      1  UNL1        0.0000
      3 C           2.1052    1.4247    1.0719 C.3     1  UNL1        0.0000
      4 C           1.0329   -1.8931    0.4478 C.3     1  UNL1        0.0000
      5 C          -2.6117   -0.4925   -0.3021 C.3     1  UNL1        0.0000
      6 C          -1.3836    2.7823    0.4324 C.3     1  UNL1        0.0000
      7 O          -1.3956    2.1389    1.5255 O.3     1  UNL1        0.0000
      8 O          -0.8334    2.4084   -0.6536 O.3     1  UNL1        0.0000
      9 O          -2.3133   -0.5481    0.9376 O.3     1  UNL1        0.0000
     10 O          -1.8259   -0.1073   -1.2278 O.3     1  UNL1        0.0000
     11 O           0.4700   -1.5226    1.5264 O.3     1  UNL1        0.0000
     12 O           0.8989   -1.3203   -0.6794 O.3     1  UNL1        0.0000
     13 O           1.2784    1.1933    2.0130 O.3     1  UNL1        0.0000
     14 O           1.8500    1.2980   -0.1697 O.3     1  UNL1        0.0000
     15 BR         -7.2594    2.1429   -2.5545 Br      1  UNL1        0.0000
     16 BR         -8.1601   -1.7429    3.7729 Br      1  UNL1        0.0000
     17 BR          7.2475   -1.9822   -2.6102 Br      1  UNL1        0.0000
     18 BR          7.8171    1.9921   -3.0055 Br      1  UNL1        0.0000
     19 C          -4.6530    3.6942    0.2845 C.ar    1  UNL1        0.0000
     20 C          -2.1711    4.0637    0.3657 C.3     1  UNL1        0.0000
     21 C          -1.4186    5.4030    0.3169 C.3     1  UNL1        0.0000
     22 C          -4.5474    3.0599   -2.4299 C.ar    1  UNL1        0.0000
     23 C          -3.4396    3.8031   -0.4004 C.ar    1  UNL1        0.0000
     24 C          -5.8085    3.2623   -0.3640 C.ar    1  UNL1        0.0000
     25 C          -1.9880    6.4719   -0.5795 C.ar    1  UNL1        0.0000
     26 C           0.0884    5.4251    0.4371 C.ar    1  UNL1        0.0000
     27 C           0.9332    4.7904   -0.4821 C.ar    1  UNL1        0.0000
     28 C          -2.1840    4.9818    1.5511 C.3     1  UNL1        0.0000
     29 C          -2.8279    7.4745   -0.0883 C.ar    1  UNL1        0.0000
     30 C          -3.4056    3.5029   -1.7686 C.ar    1  UNL1        0.0000
     31 C          -1.6646    6.4759   -1.9431 C.ar    1  UNL1        0.0000
     32 C          -5.7314    2.9195   -1.7093 C.ar    1  UNL1        0.0000
     33 C          -3.0303    8.4380   -2.2965 C.ar    1  UNL1        0.0000
     34 C           2.3192    4.8831   -0.3550 C.ar    1  UNL1        0.0000
     35 C           2.0479    6.2722    1.5992 C.ar    1  UNL1        0.0000
     36 C           0.6638    6.1649    1.4784 C.ar    1  UNL1        0.0000
     37 C          -2.1827    7.4466   -2.7955 C.ar    1  UNL1        0.0000
     38 C          -3.3474    8.4510   -0.9398 C.ar    1  UNL1        0.0000
     39 C           2.8792    5.6309    0.6799 C.ar    1  UNL1        0.0000
     40 C          -6.0519   -0.1873    0.5317 C.ar    1  UNL1        0.0000
     41 C          -3.9872   -0.9045   -0.7280 C.3     1  UNL1        0.0000
     42 C          -4.0959   -1.8623   -1.9790 C.3     1  UNL1        0.0000
     43 C          -5.8170   -2.3749    2.2479 C.ar    1  UNL1        0.0000
     44 C          -4.9894   -1.0774    0.3700 C.ar    1  UNL1        0.0000
     45 C          -6.9960   -0.3749    1.5415 C.ar    1  UNL1        0.0000
     46 C          -5.1917   -2.8962   -1.9062 C.ar    1  UNL1        0.0000
     47 C          -2.8334   -2.3211   -2.6591 C.ar    1  UNL1        0.0000
     48 C          -1.8151   -2.9837   -1.9692 C.ar    1  UNL1        0.0000
     49 C          -4.4390   -0.4109   -2.0867 C.3     1  UNL1        0.0000
     50 C          -6.5500   -2.5514   -1.9287 C.ar    1  UNL1        0.0000
     51 C          -4.8862   -2.1703    1.2359 C.ar    1  UNL1        0.0000
     52 C          -4.8563   -4.2496   -1.7606 C.ar    1  UNL1        0.0000
     53 C          -6.8663   -1.4684    2.3908 C.ar    1  UNL1        0.0000
     54 C          -7.1908   -4.8645   -1.6224 C.ar    1  UNL1        0.0000
     55 C          -0.6669   -3.4017   -2.6380 C.ar    1  UNL1        0.0000
     56 C          -1.5406   -2.5201   -4.7044 C.ar    1  UNL1        0.0000
     57 C          -2.6873   -2.1001   -4.0327 C.ar    1  UNL1        0.0000
     58 C          -5.8431   -5.2224   -1.6162 C.ar    1  UNL1        0.0000
     59 C          -7.5377   -3.5238   -1.7849 C.ar    1  UNL1        0.0000
     60 C          -0.5224   -3.1713   -4.0050 C.ar    1  UNL1        0.0000
     61 C           3.2439   -2.5998   -1.6391 C.ar    1  UNL1        0.0000
     62 C           1.9883   -3.0642    0.5201 C.3     1  UNL1        0.0000
     63 C           1.4085   -4.5297    0.6658 C.3     1  UNL1        0.0000
     64 C           5.6880   -2.6030   -0.2936 C.ar    1  UNL1        0.0000
     65 C           3.2607   -2.8401   -0.2560 C.ar    1  UNL1        0.0000
     66 C           4.4224   -2.3770   -2.3448 C.ar    1  UNL1        0.0000
     67 C           2.2382   -5.6193    0.0334 C.ar    1  UNL1        0.0000
     68 C          -0.0785   -4.8038    0.7023 C.ar    1  UNL1        0.0000
     69 C          -0.6490   -5.7336   -0.1820 C.ar    1  UNL1        0.0000
     70 C           2.0469   -3.8143    1.8202 C.3     1  UNL1        0.0000
     71 C           2.8089   -6.6048    0.8454 C.ar    1  UNL1        0.0000
     72 C           4.4987   -2.8371    0.3965 C.ar    1  UNL1        0.0000
     73 C           2.4190   -5.7066   -1.3518 C.ar    1  UNL1        0.0000
     74 C           5.6391   -2.3750   -1.6633 C.ar    1  UNL1        0.0000
     75 C           3.7339   -7.7173   -1.0899 C.ar    1  UNL1        0.0000
     76 C          -2.0042   -6.0525   -0.1218 C.ar    1  UNL1        0.0000
     77 C          -2.2718   -4.5484    1.7304 C.ar    1  UNL1        0.0000
     78 C          -0.9206   -4.2159    1.6603 C.ar    1  UNL1        0.0000
     79 C           3.1625   -6.7443   -1.9105 C.ar    1  UNL1        0.0000
     80 C           3.5518   -7.6466    0.2911 C.ar    1  UNL1        0.0000
     81 C          -2.8268   -5.4643    0.8375 C.ar    1  UNL1        0.0000
     82 C           5.4088    3.0239    0.2410 C.ar    1  UNL1        0.0000
     83 C           3.4832    1.8846    1.4415 C.3     1  UNL1        0.0000
     84 C           4.0318    1.4667    2.8546 C.3     1  UNL1        0.0000
     85 C           5.5126    0.9915   -1.6487 C.ar    1  UNL1        0.0000
     86 C           4.4759    1.9845    0.3167 C.ar    1  UNL1        0.0000
     87 C           6.4002    3.0490   -0.7401 C.ar    1  UNL1        0.0000
     88 C           5.5240    1.2549    2.9292 C.ar    1  UNL1        0.0000
     89 C           3.2732    0.5575    3.7862 C.ar    1  UNL1        0.0000
     90 C           2.6976    1.0808    4.9479 C.ar    1  UNL1        0.0000
     91 C           3.5322    2.8505    2.6161 C.3     1  UNL1        0.0000
     92 C           6.1412    0.2225    2.2124 C.ar    1  UNL1        0.0000
     93 C           4.5512    0.9657   -0.6462 C.ar    1  UNL1        0.0000
     94 C           6.3088    2.0714    3.7467 C.ar    1  UNL1        0.0000
     95 C           6.4450    2.0233   -1.6764 C.ar    1  UNL1        0.0000
     96 C           8.2950    0.8493    3.1117 C.ar    1  UNL1        0.0000
     97 C           2.0677    0.2490    5.8720 C.ar    1  UNL1        0.0000
     98 C           2.6043   -1.6587    4.5018 C.ar    1  UNL1        0.0000
     99 C           3.2192   -0.8232    3.5726 C.ar    1  UNL1        0.0000
    100 C           7.6866    1.8704    3.8406 C.ar    1  UNL1        0.0000
    101 C           7.5162    0.0253    2.2966 C.ar    1  UNL1        0.0000
    102 C           2.0213   -1.1276    5.6530 C.ar    1  UNL1        0.0000
    103 H          -4.6912    3.9094    1.3465 H       1  UNL1        0.0000
    104 H          -4.5144    2.7985   -3.4808 H       1  UNL1        0.0000
    105 H          -6.7414    3.1554    0.1765 H       1  UNL1        0.0000
    106 H           0.5081    4.1940   -1.2780 H       1  UNL1        0.0000
    107 H          -3.1191    5.4794    1.7805 H       1  UNL1        0.0000
    108 H          -1.6049    4.6805    2.4161 H       1  UNL1        0.0000
    109 H          -3.0730    7.4998    0.9682 H       1  UNL1        0.0000
    110 H          -0.9975    5.7149   -2.3341 H       1  UNL1        0.0000
    111 H          -3.4360    9.1950   -2.9604 H       1  UNL1        0.0000
    112 H           2.9607    4.3600   -1.0560 H       1  UNL1        0.0000
    113 H           2.4755    6.8560    2.4089 H       1  UNL1        0.0000
    114 H           0.0160    6.6644    2.1926 H       1  UNL1        0.0000
    115 H          -1.9252    7.4302   -3.8502 H       1  UNL1        0.0000
    116 H          -3.9979    9.2226   -0.5392 H       1  UNL1        0.0000
    117 H           3.9577    5.7118    0.7684 H       1  UNL1        0.0000
    118 H          -6.1621    0.6504   -0.1447 H       1  UNL1        0.0000
    119 H          -5.7406   -3.2288    2.9112 H       1  UNL1        0.0000
    120 H          -7.8236    0.3144    1.6613 H       1  UNL1        0.0000
    121 H          -1.9057   -3.1537   -0.9019 H       1  UNL1        0.0000
    122 H          -5.4704   -0.1021   -2.1917 H       1  UNL1        0.0000
    123 H          -3.7269    0.2124   -2.6111 H       1  UNL1        0.0000
    124 H          -6.8530   -1.5179   -2.0455 H       1  UNL1        0.0000
    125 H          -3.8147   -4.5430   -1.7571 H       1  UNL1        0.0000
    126 H          -7.9615   -5.6203   -1.5075 H       1  UNL1        0.0000
    127 H           0.1141   -3.9008   -2.0797 H       1  UNL1        0.0000
    128 H          -1.4419   -2.3399   -5.7707 H       1  UNL1        0.0000
    129 H          -3.4789   -1.5894   -4.5730 H       1  UNL1        0.0000
    130 H          -5.5549   -6.2636   -1.5023 H       1  UNL1        0.0000
    131 H          -8.5825   -3.2290   -1.7991 H       1  UNL1        0.0000
    132 H           0.3741   -3.4985   -4.5237 H       1  UNL1        0.0000
    133 H           2.2972   -2.5712   -2.1627 H       1  UNL1        0.0000
    134 H           6.6363   -2.5880    0.2302 H       1  UNL1        0.0000
    135 H           4.3976   -2.1929   -3.4126 H       1  UNL1        0.0000
    136 H          -0.0266   -6.2254   -0.9185 H       1  UNL1        0.0000
    137 H           3.0117   -4.1817    2.1477 H       1  UNL1        0.0000
    138 H           1.4163   -3.4431    2.6142 H       1  UNL1        0.0000
    139 H           2.6633   -6.5559    1.9202 H       1  UNL1        0.0000
    140 H           1.9843   -4.9531   -1.9970 H       1  UNL1        0.0000
    141 H           4.3167   -8.5237   -1.5237 H       1  UNL1        0.0000
    142 H          -2.4131   -6.7708   -0.8259 H       1  UNL1        0.0000
    143 H          -2.8854   -4.0899    2.4990 H       1  UNL1        0.0000
    144 H          -0.5341   -3.4909    2.3618 H       1  UNL1        0.0000
    145 H           3.2989   -6.7893   -2.9865 H       1  UNL1        0.0000
    146 H           3.9877   -8.4016    0.9381 H       1  UNL1        0.0000
    147 H          -3.8826   -5.7090    0.8840 H       1  UNL1        0.0000
    148 H           5.3947    3.8234    0.9705 H       1  UNL1        0.0000
    149 H           5.5553    0.2058   -2.3873 H       1  UNL1        0.0000
    150 H           7.1288    3.8504   -0.7674 H       1  UNL1        0.0000
    151 H           2.7427    2.1498    5.1285 H       1  UNL1        0.0000
    152 H           4.2429    3.6649    2.5681 H       1  UNL1        0.0000
    153 H           2.5658    3.1203    3.0239 H       1  UNL1        0.0000
    154 H           5.5495   -0.4032    1.5554 H       1  UNL1        0.0000
    155 H           5.8360    2.8686    4.3128 H       1  UNL1        0.0000
    156 H           9.3683    0.6989    3.1736 H       1  UNL1        0.0000
    157 H           1.6239    0.6750    6.7668 H       1  UNL1        0.0000
    158 H           2.5850   -2.7296    4.3339 H       1  UNL1        0.0000
    159 H           3.6520   -1.2420    2.6712 H       1  UNL1        0.0000
    160 H           8.2835    2.5146    4.4793 H       1  UNL1        0.0000
    161 H           7.9838   -0.7626    1.7135 H       1  UNL1        0.0000
    162 H           1.5432   -1.7820    6.3754 H       1  UNL1        0.0000
    163 H           3.8545    0.1386   -0.6202 H       1  UNL1        0.0000
    164 H          -2.4679    3.5727   -2.3052 H       1  UNL1        0.0000
    165 H           4.5500   -3.0063    1.4655 H       1  UNL1        0.0000
    166 H          -4.0758   -2.8731    1.0977 H       1  UNL1        0.0000
@<TRIPOS>BOND
     1     1    13    1
     2     2    12    1
     3     2     8    1
     4     2    14    1
     5     2     1    1
     6     3    14    1
     7     3    83    1
     8     3    13    1
     9     4    12    1
    10     4    62    1
    11     4    11    1
    12     5    10    1
    13     5     9    1
    14     6     8    1
    15     6     7    1
    16     7     1    1
    17     9     1    1
    18    10     2    1
    19    11     1    1
    20    15    32    1
    21    17    74    1
    22    18    95    1
    23    19   103    1
    24    20    23    1
    25    20     6    1
    26    20    28    1
    27    21    20    1
    28    21    26    1
    29    21    28    1
    30    22    30   ar
    31    22    32   ar
    32    23    19   ar
    33    24   105    1
    34    24    19   ar
    35    25    29   ar
    36    25    21    1
    37    26    36   ar
    38    27    34   ar
    39    27    26   ar
    40    28   107    1
    41    28   108    1
    42    29   109    1
    43    30    23   ar
    44    31    25   ar
    45    32    24   ar
    46    33    38   ar
    47    34    39   ar
    48    35   113    1
    49    36    35   ar
    50    36   114    1
    51    37    33   ar
    52    37    31   ar
    53    38   116    1
    54    38    29   ar
    55    39   117    1
    56    39    35   ar
    57    40    45   ar
    58    41     5    1
    59    41    44    1
    60    42    46    1
    61    42    41    1
    62    43    53   ar
    63    43   119    1
    64    44    40   ar
    65    44    51   ar
    66    45   120    1
    67    45    53   ar
    68    46    52   ar
    69    47    42    1
    70    47    48   ar
    71    48   121    1
    72    49    42    1
    73    49    41    1
    74    50    46   ar
    75    50    59   ar
    76    51    43   ar
    77    52   125    1
    78    52    58   ar
    79    53    16    1
    80    54    58   ar
    81    54   126    1
    82    55   127    1
    83    55    48   ar
    84    56    57   ar
    85    56    60   ar
    86    57    47   ar
    87    58   130    1
    88    59    54   ar
    89    60    55   ar
    90    61    65   ar
    91    62    65    1
    92    62    63    1
    93    62    70    1
    94    63    68    1
    95    63    70    1
    96    64   134    1
    97    64    72   ar
    98    65    72   ar
    99    66    74   ar
   100    66    61   ar
   101    67    63    1
   102    67    71   ar
   103    68    78   ar
   104    69    76   ar
   105    69    68   ar
   106    70   137    1
   107    70   138    1
   108    71   139    1
   109    72   165    1
   110    73    67   ar
   111    74    64   ar
   112    75    80   ar
   113    76    81   ar
   114    77   143    1
   115    78    77   ar
   116    78   144    1
   117    79    73   ar
   118    79    75   ar
   119    80    71   ar
   120    80   146    1
   121    81   147    1
   122    81    77   ar
   123    82    86   ar
   124    82   148    1
   125    83    86    1
   126    83    91    1
   127    83    84    1
   128    84    88    1
   129    84    89    1
   130    85    93   ar
   131    87    82   ar
   132    88    94   ar
   133    89    90   ar
   134    90   151    1
   135    90    97   ar
   136    91    84    1
   137    91   153    1
   138    92   101   ar
   139    92    88   ar
   140    93   163    1
   141    93    86   ar
   142    94   100   ar
   143    94   155    1
   144    95    85   ar
   145    95    87   ar
   146    96   156    1
   147    96   100   ar
   148    97   157    1
   149    98   102   ar
   150    99    89   ar
   151    99    98   ar
   152   100   160    1
   153   101    96   ar
   154   102    97   ar
   155   102   162    1
   156   104    22    1
   157   106    27    1
   158   110    31    1
   159   111    33    1
   160   112    34    1
   161   115    37    1
   162   118    40    1
   163   122    49    1
   164   123    49    1
   165   124    50    1
   166   128    56    1
   167   129    57    1
   168   131    59    1
   169   132    60    1
   170   133    61    1
   171   135    66    1
   172   136    69    1
   173   140    73    1
   174   141    75    1
   175   142    76    1
   176   145    79    1
   177   149    85    1
   178   150    87    1
   179   152    91    1
   180   154    92    1
   181   158    98    1
   182   159    99    1
   183   161   101    1
   184   164    30    1
   185   166    51    1
