@<TRIPOS>MOLECULE
RhRh_PhPhtol-O2C4_3_sp
 162 177 0 0 0
SMALL
GASTEIGER

@<TRIPOS>ATOM
      1 Rh          0.0222    0.0820    1.1855 Rh      1  UNL1        0.0000
      2 Rh         -0.0466    0.0917   -1.1981 Rh      1  UNL1        0.0000
      3 C           1.9268   -1.7163   -0.0237 C.3     1  UNL1        0.0000
      4 C           1.8241    1.9787   -0.1048 C.3     1  UNL1        0.0000
      5 C          -1.9644    1.8556    0.0818 C.3     1  UNL1        0.0000
      6 C          -1.7810   -1.8771    0.0251 C.3     1  UNL1        0.0000
      7 O           1.4195    1.5981    1.0376 O.3     1  UNL1        0.0000
      8 O           1.3270    1.6047   -1.2126 O.3     1  UNL1        0.0000
      9 O          -1.5286    1.4153    1.1917 O.3     1  UNL1        0.0000
     10 O          -1.5529    1.4860   -1.0603 O.3     1  UNL1        0.0000
     11 O          -1.3384   -1.4789    1.1448 O.3     1  UNL1        0.0000
     12 O          -1.4149   -1.4177   -1.1019 O.3     1  UNL1        0.0000
     13 O           1.5595   -1.2496    1.0994 O.3     1  UNL1        0.0000
     14 O           1.4824   -1.3238   -1.1467 O.3     1  UNL1        0.0000
     15 C           3.0257    2.9665   -0.1862 C.3     1  UNL1        0.0000
     16 C           3.2103    3.5683    1.2218 C.ar    1  UNL1        0.0000
     17 C           2.9874    4.9163    1.5040 C.ar    1  UNL1        0.0000
     18 C           3.1849    5.4184    2.7934 C.ar    1  UNL1        0.0000
     19 C           3.6031    4.5768    3.8206 C.ar    1  UNL1        0.0000
     20 C           3.8245    3.2239    3.5483 C.ar    1  UNL1        0.0000
     21 C           3.6294    2.7281    2.2638 C.ar    1  UNL1        0.0000
     22 C           4.2952    2.1710   -0.6178 C.ar    1  UNL1        0.0000
     23 C           4.1605    0.9852   -1.3554 C.ar    1  UNL1        0.0000
     24 C           5.2599    0.2423   -1.7787 C.ar    1  UNL1        0.0000
     25 C           6.5412    0.6787   -1.4678 C.ar    1  UNL1        0.0000
     26 C           6.6947    1.8776   -0.7782 C.ar    1  UNL1        0.0000
     27 C           5.6043    2.6533   -0.3579 C.ar    1  UNL1        0.0000
     28 C           2.6554    4.0236   -1.2451 C.ar    1  UNL1        0.0000
     29 C           3.5386    4.4320   -2.2456 C.ar    1  UNL1        0.0000
     30 C           3.1633    5.4151   -3.1655 C.ar    1  UNL1        0.0000
     31 C           1.9004    5.9997   -3.1019 C.ar    1  UNL1        0.0000
     32 C           1.0055    5.5899   -2.1108 C.ar    1  UNL1        0.0000
     33 C           1.3829    4.6093   -1.1999 C.ar    1  UNL1        0.0000
     34 C          -3.0860    2.9341    0.1605 C.3     1  UNL1        0.0000
     35 C          -3.7591    2.9909   -1.2253 C.ar    1  UNL1        0.0000
     36 C          -3.0243    3.5008   -2.3066 C.ar    1  UNL1        0.0000
     37 C          -3.5891    3.5903   -3.5741 C.ar    1  UNL1        0.0000
     38 C          -4.9061    3.1723   -3.7878 C.ar    1  UNL1        0.0000
     39 C          -5.6405    2.6632   -2.7207 C.ar    1  UNL1        0.0000
     40 C          -5.0689    2.5686   -1.4493 C.ar    1  UNL1        0.0000
     41 C          -2.4389    4.3057    0.5078 C.ar    1  UNL1        0.0000
     42 C          -3.1157    5.5290    0.2661 C.ar    1  UNL1        0.0000
     43 C          -2.4787    6.7251    0.6253 C.ar    1  UNL1        0.0000
     44 C          -1.2285    6.7534    1.2367 C.ar    1  UNL1        0.0000
     45 C          -0.5938    5.5515    1.5242 C.ar    1  UNL1        0.0000
     46 C          -1.1989    4.3496    1.1602 C.ar    1  UNL1        0.0000
     47 C          -4.0356    2.4855    1.2919 C.ar    1  UNL1        0.0000
     48 C          -4.5036    1.1625    1.3178 C.ar    1  UNL1        0.0000
     49 C          -5.3257    0.7171    2.3486 C.ar    1  UNL1        0.0000
     50 C          -5.7072    1.5867    3.3721 C.ar    1  UNL1        0.0000
     51 C          -5.2542    2.9024    3.3519 C.ar    1  UNL1        0.0000
     52 C          -4.4192    3.3451    2.3236 C.ar    1  UNL1        0.0000
     53 C          -2.8938   -2.9723   -0.0219 C.3     1  UNL1        0.0000
     54 C          -3.0210   -3.6587    1.3490 C.ar    1  UNL1        0.0000
     55 C          -2.9278   -5.0473    1.4751 C.ar    1  UNL1        0.0000
     56 C          -3.0523   -5.6680    2.7203 C.ar    1  UNL1        0.0000
     57 C          -3.2627   -4.9077    3.8670 C.ar    1  UNL1        0.0000
     58 C          -3.3603   -3.5184    3.7553 C.ar    1  UNL1        0.0000
     59 C          -3.2457   -2.9024    2.5126 C.ar    1  UNL1        0.0000
     60 C          -4.1784   -2.1796   -0.4124 C.ar    1  UNL1        0.0000
     61 C          -5.3356   -2.1878    0.3722 C.ar    1  UNL1        0.0000
     62 C          -6.4863   -1.5145   -0.0413 C.ar    1  UNL1        0.0000
     63 C          -6.4994   -0.8114   -1.2429 C.ar    1  UNL1        0.0000
     64 C          -5.3522   -0.8002   -2.0372 C.ar    1  UNL1        0.0000
     65 C          -4.2083   -1.4808   -1.6296 C.ar    1  UNL1        0.0000
     66 C          -2.5305   -3.9962   -1.1282 C.ar    1  UNL1        0.0000
     67 C          -3.4968   -4.7953   -1.7839 C.ar    1  UNL1        0.0000
     68 C          -3.0628   -5.6881   -2.7749 C.ar    1  UNL1        0.0000
     69 C          -1.7214   -5.8323   -3.1128 C.ar    1  UNL1        0.0000
     70 C          -0.7687   -5.0959   -2.4165 C.ar    1  UNL1        0.0000
     71 C          -1.1779   -4.2026   -1.4320 C.ar    1  UNL1        0.0000
     72 C           2.9350   -2.9054    0.0472 C.3     1  UNL1        0.0000
     73 C           2.0228   -4.1058    0.4470 C.ar    1  UNL1        0.0000
     74 C           1.2456   -4.0288    1.6136 C.ar    1  UNL1        0.0000
     75 C           0.4261   -5.0856    1.9996 C.ar    1  UNL1        0.0000
     76 C           0.3785   -6.2533    1.2377 C.ar    1  UNL1        0.0000
     77 C           1.1629   -6.3505    0.0920 C.ar    1  UNL1        0.0000
     78 C           1.9726   -5.2850   -0.3029 C.ar    1  UNL1        0.0000
     79 C           3.6174   -3.1338   -1.3152 C.ar    1  UNL1        0.0000
     80 C           2.8579   -3.2912   -2.4878 C.ar    1  UNL1        0.0000
     81 C           3.4729   -3.5101   -3.7173 C.ar    1  UNL1        0.0000
     82 C           4.8642   -3.5902   -3.8077 C.ar    1  UNL1        0.0000
     83 C           5.6275   -3.4540   -2.6518 C.ar    1  UNL1        0.0000
     84 C           5.0094   -3.2256   -1.4199 C.ar    1  UNL1        0.0000
     85 C           3.9947   -2.5825    1.1306 C.ar    1  UNL1        0.0000
     86 C           4.6910   -3.5659    1.8687 C.ar    1  UNL1        0.0000
     87 C           5.6859   -3.1428    2.7655 C.ar    1  UNL1        0.0000
     88 C           6.0347   -1.8057    2.9212 C.ar    1  UNL1        0.0000
     89 C           5.3838   -0.8447    2.1526 C.ar    1  UNL1        0.0000
     90 C           4.3784   -1.2415    1.2792 C.ar    1  UNL1        0.0000
     91 C           5.9297    3.9808    0.2938 C.3     1  UNL1        0.0000
     92 C          -4.5122    5.6463   -0.3054 C.3     1  UNL1        0.0000
     93 C          -4.9735   -4.8019   -1.4574 C.3     1  UNL1        0.0000
     94 C           4.4939   -5.0579    1.7203 C.3     1  UNL1        0.0000
     95 H           2.6776    5.5894    0.7147 H       1  UNL1        0.0000
     96 H           3.0163    6.4738    2.9863 H       1  UNL1        0.0000
     97 H           3.7587    4.9671    4.8216 H       1  UNL1        0.0000
     98 H           4.1511    2.5532    4.3373 H       1  UNL1        0.0000
     99 H           3.8044    1.6779    2.0658 H       1  UNL1        0.0000
    100 H           3.1790    0.6221   -1.6181 H       1  UNL1        0.0000
    101 H           5.1015   -0.6739   -2.3348 H       1  UNL1        0.0000
    102 H           7.4126    0.1080   -1.7737 H       1  UNL1        0.0000
    103 H           7.6946    2.2468   -0.5672 H       1  UNL1        0.0000
    104 H           4.5175    3.9750   -2.3230 H       1  UNL1        0.0000
    105 H           3.8651    5.7173   -3.9370 H       1  UNL1        0.0000
    106 H           1.6133    6.7628   -3.8190 H       1  UNL1        0.0000
    107 H           0.0156    6.0304   -2.0376 H       1  UNL1        0.0000
    108 H           0.6757    4.3028   -0.4410 H       1  UNL1        0.0000
    109 H          -2.0058    3.8367   -2.1486 H       1  UNL1        0.0000
    110 H          -3.0030    3.9911   -4.3956 H       1  UNL1        0.0000
    111 H          -5.3514    3.2485   -4.7752 H       1  UNL1        0.0000
    112 H          -6.6665    2.3391   -2.8685 H       1  UNL1        0.0000
    113 H          -5.6593    2.1755   -0.6322 H       1  UNL1        0.0000
    114 H          -2.9987    7.6593    0.4316 H       1  UNL1        0.0000
    115 H          -0.7715    7.7018    1.5024 H       1  UNL1        0.0000
    116 H           0.3700    5.5301    2.0206 H       1  UNL1        0.0000
    117 H          -0.6865    3.4307    1.4089 H       1  UNL1        0.0000
    118 H          -4.2204    0.4694    0.5327 H       1  UNL1        0.0000
    119 H          -5.6649   -0.3118    2.3475 H       1  UNL1        0.0000
    120 H          -6.3471    1.2377    4.1768 H       1  UNL1        0.0000
    121 H          -5.5365    3.5909    4.1427 H       1  UNL1        0.0000
    122 H          -4.0512    4.3629    2.3436 H       1  UNL1        0.0000
    123 H          -2.7395   -5.6535    0.5988 H       1  UNL1        0.0000
    124 H          -2.9765   -6.7493    2.7869 H       1  UNL1        0.0000
    125 H          -3.3546   -5.3876    4.8366 H       1  UNL1        0.0000
    126 H          -3.5286   -2.9098    4.6387 H       1  UNL1        0.0000
    127 H          -3.3282   -1.8251    2.4472 H       1  UNL1        0.0000
    128 H          -5.3562   -2.7438    1.3002 H       1  UNL1        0.0000
    129 H          -7.3726   -1.5416    0.5852 H       1  UNL1        0.0000
    130 H          -7.3914   -0.2792   -1.5587 H       1  UNL1        0.0000
    131 H          -5.3401   -0.2511   -2.9722 H       1  UNL1        0.0000
    132 H          -3.3309   -1.4764   -2.2611 H       1  UNL1        0.0000
    133 H          -3.8094   -6.2924   -3.2828 H       1  UNL1        0.0000
    134 H          -1.4256   -6.5293   -3.8910 H       1  UNL1        0.0000
    135 H           0.2890   -5.2161   -2.6218 H       1  UNL1        0.0000
    136 H          -0.4145   -3.6619   -0.8893 H       1  UNL1        0.0000
    137 H           1.2826   -3.1353    2.2206 H       1  UNL1        0.0000
    138 H          -0.1870   -4.9892    2.8890 H       1  UNL1        0.0000
    139 H          -0.2682   -7.0730    1.5338 H       1  UNL1        0.0000
    140 H           1.1398   -7.2525   -0.5114 H       1  UNL1        0.0000
    141 H           2.5802   -5.3871   -1.1923 H       1  UNL1        0.0000
    142 H           1.7790   -3.2384   -2.4405 H       1  UNL1        0.0000
    143 H           2.8603   -3.6199   -4.6071 H       1  UNL1        0.0000
    144 H           5.3430   -3.7607   -4.7670 H       1  UNL1        0.0000
    145 H           6.7104   -3.5174   -2.7001 H       1  UNL1        0.0000
    146 H           5.6240   -3.1023   -0.5380 H       1  UNL1        0.0000
    147 H           6.2123   -3.9004    3.3394 H       1  UNL1        0.0000
    148 H           6.8184   -1.5238    3.6178 H       1  UNL1        0.0000
    149 H           5.6582    0.2036    2.2126 H       1  UNL1        0.0000
    150 H           3.8964   -0.4798    0.6847 H       1  UNL1        0.0000
    151 H           5.2805    4.7827   -0.0605 H       1  UNL1        0.0000
    152 H           5.8322    3.9468    1.3818 H       1  UNL1        0.0000
    153 H           6.9608    4.2564    0.0568 H       1  UNL1        0.0000
    154 H          -5.1888    4.8976    0.1090 H       1  UNL1        0.0000
    155 H          -4.9191    6.6332   -0.0694 H       1  UNL1        0.0000
    156 H          -4.5269    5.5259   -1.3916 H       1  UNL1        0.0000
    157 H          -5.1513   -4.8170   -0.3803 H       1  UNL1        0.0000
    158 H          -5.4939   -3.9290   -1.8596 H       1  UNL1        0.0000
    159 H          -5.4369   -5.6952   -1.8844 H       1  UNL1        0.0000
    160 H           3.5419   -5.3989    2.1340 H       1  UNL1        0.0000
    161 H           4.5164   -5.3659    0.6726 H       1  UNL1        0.0000
    162 H           5.2970   -5.5864    2.2405 H       1  UNL1        0.0000
@<TRIPOS>BOND
     1     1     9    1
     2     2    14    1
     3     2    12    1
     4     2    10    1
     5     2     1    1
     6     3    72    1
     7     3    13    1
     8     4     7    1
     9     5    34    1
    10     5     9    1
    11     6    11    1
    12     7     1    1
    13     8     2    1
    14     8     4    1
    15    10     5    1
    16    11     1    1
    17    12     6    1
    18    13     1    1
    19    14     3    1
    20    15     4    1
    21    15    16    1
    22    16    17   ar
    23    16    21   ar
    24    17    18   ar
    25    18    96    1
    26    18    19   ar
    27    19    97    1
    28    20    19   ar
    29    20    98    1
    30    21    20   ar
    31    22    27   ar
    32    22    15    1
    33    23    22   ar
    34    24    25   ar
    35    24    23   ar
    36    25    26   ar
    37    26   103    1
    38    26    27   ar
    39    27    91    1
    40    28    33   ar
    41    28    15    1
    42    29    28   ar
    43    30    31   ar
    44    30    29   ar
    45    31    32   ar
    46    32   107    1
    47    32    33   ar
    48    33   108    1
    49    34    41    1
    50    34    47    1
    51    35    34    1
    52    36   109    1
    53    36    35   ar
    54    37    36   ar
    55    38    37   ar
    56    38    39   ar
    57    39    40   ar
    58    40    35   ar
    59    40   113    1
    60    41    46   ar
    61    42    41   ar
    62    42    43   ar
    63    43    44   ar
    64    44   115    1
    65    44    45   ar
    66    45   116    1
    67    46   117    1
    68    46    45   ar
    69    47    48   ar
    70    47    52   ar
    71    48    49   ar
    72    49    50   ar
    73    50   120    1
    74    51    50   ar
    75    51   121    1
    76    52   122    1
    77    52    51   ar
    78    53     6    1
    79    53    54    1
    80    54    55   ar
    81    54    59   ar
    82    55    56   ar
    83    56   124    1
    84    56    57   ar
    85    57   125    1
    86    58    57   ar
    87    58   126    1
    88    59    58   ar
    89    60    53    1
    90    60    61   ar
    91    61   128    1
    92    62    61   ar
    93    62   129    1
    94    63    62   ar
    95    64    65   ar
    96    64    63   ar
    97    65    60   ar
    98    66    53    1
    99    67    93    1
   100    67    66   ar
   101    68    67   ar
   102    69    68   ar
   103    69    70   ar
   104    70    71   ar
   105    71    66   ar
   106    71   136    1
   107    72    73    1
   108    72    85    1
   109    73    74   ar
   110    74    75   ar
   111    74   137    1
   112    75   138    1
   113    76   139    1
   114    76    75   ar
   115    77    76   ar
   116    78    77   ar
   117    78    73   ar
   118    79    72    1
   119    80   142    1
   120    80    79   ar
   121    81    80   ar
   122    82    81   ar
   123    82    83   ar
   124    83    84   ar
   125    84    79   ar
   126    84   146    1
   127    85    90   ar
   128    85    86   ar
   129    86    87   ar
   130    87    88   ar
   131    87   147    1
   132    88   148    1
   133    89   149    1
   134    89    88   ar
   135    90    89   ar
   136    91   152    1
   137    92   155    1
   138    92   154    1
   139    92    42    1
   140    93   157    1
   141    94    86    1
   142    94   160    1
   143    94   162    1
   144    95    17    1
   145    99    21    1
   146   100    23    1
   147   101    24    1
   148   102    25    1
   149   104    29    1
   150   105    30    1
   151   106    31    1
   152   110    37    1
   153   111    38    1
   154   112    39    1
   155   114    43    1
   156   118    48    1
   157   119    49    1
   158   123    55    1
   159   127    59    1
   160   130    63    1
   161   131    64    1
   162   132    65    1
   163   133    68    1
   164   134    69    1
   165   135    70    1
   166   140    77    1
   167   141    78    1
   168   143    81    1
   169   144    82    1
   170   145    83    1
   171   150    90    1
   172   151    91    1
   173   153    91    1
   174   156    92    1
   175   158    93    1
   176   159    93    1
   177   161    94    1
