@<TRIPOS>MOLECULE
RhRh_ACH4_16_sp
 138 153 0 0 0
SMALL
GASTEIGER

@<TRIPOS>ATOM
      1 Rh         -0.1929   -0.4954    1.3354 Rh      1  UNL1        0.0000
      2 Rh          0.6887   -0.1474   -0.8588 Rh      1  UNL1        0.0000
      3 C          -1.1188    1.9158    0.0073 C.3     1  UNL1        0.0000
      4 C           2.1787    1.1300    1.2733 C.3     1  UNL1        0.0000
      5 C           1.6527   -2.5286    0.4628 C.3     1  UNL1        0.0000
      6 C          -1.7792   -1.6343   -0.7899 C.3     1  UNL1        0.0000
      7 O          -1.6528   -1.6550    0.4755 O.3     1  UNL1        0.0000
      8 O          -0.9480   -1.1520   -1.6151 O.3     1  UNL1        0.0000
      9 O           0.9892   -2.1749    1.4827 O.3     1  UNL1        0.0000
     10 O           1.6813   -1.9323   -0.6595 O.3     1  UNL1        0.0000
     11 O           2.2315    0.8881    0.0268 O.3     1  UNL1        0.0000
     12 O           1.3166    0.6794    2.0869 O.3     1  UNL1        0.0000
     13 O          -0.3494    1.6109   -0.9543 O.3     1  UNL1        0.0000
     14 O          -1.3111    1.2197    1.0539 O.3     1  UNL1        0.0000
     15 N          -4.0760   -2.2031   -0.2994 N.am    1  UNL1        0.0000
     16 N           3.7428   -3.5802   -0.0987 N.am    1  UNL1        0.0000
     17 N           3.7973    2.8356    0.7110 N.am    1  UNL1        0.0000
     18 N          -3.2872    2.9556   -0.4408 N.am    1  UNL1        0.0000
     19 C          -3.0505   -2.2918   -1.3673 C.3     1  UNL1        0.0000
     20 C          -2.6872   -3.7446   -1.7654 C.3     1  UNL1        0.0000
     21 C          -3.7892   -4.4660   -2.5535 C.3     1  UNL1        0.0000
     22 C          -4.2838   -3.6510   -3.7527 C.3     1  UNL1        0.0000
     23 C          -4.6903   -2.2398   -3.3169 C.3     1  UNL1        0.0000
     24 C          -3.5260   -1.5285   -2.6273 C.3     1  UNL1        0.0000
     25 C          -4.5701   -3.2198    0.5523 C.2     1  UNL1        0.0000
     26 C          -5.2933   -2.5184    1.6537 C.ar    1  UNL1        0.0000
     27 C          -5.9973   -3.0417    2.7269 C.ar    1  UNL1        0.0000
     28 C          -6.5230   -2.1304    3.6516 C.ar    1  UNL1        0.0000
     29 C          -6.3288   -0.7507    3.5024 C.ar    1  UNL1        0.0000
     30 C          -5.6122   -0.2302    2.4174 C.ar    1  UNL1        0.0000
     31 C          -5.1169   -1.1460    1.4994 C.ar    1  UNL1        0.0000
     32 C          -4.3076   -0.9353    0.2802 C.2     1  UNL1        0.0000
     33 C           2.4253   -3.8656    0.5097 C.3     1  UNL1        0.0000
     34 C           1.5966   -4.8619   -0.3401 C.3     1  UNL1        0.0000
     35 C           0.2725   -5.2029    0.3552 C.3     1  UNL1        0.0000
     36 C           0.5322   -5.8416    1.7246 C.3     1  UNL1        0.0000
     37 C           1.3505   -4.9068    2.6233 C.3     1  UNL1        0.0000
     38 C           2.6342   -4.4139    1.9370 C.3     1  UNL1        0.0000
     39 C           4.4870   -4.3456   -1.0210 C.2     1  UNL1        0.0000
     40 C           5.6875   -3.5189   -1.3504 C.ar    1  UNL1        0.0000
     41 C           6.7237   -3.7757   -2.2332 C.ar    1  UNL1        0.0000
     42 C           7.7153   -2.7939   -2.3597 C.ar    1  UNL1        0.0000
     43 C           7.6541   -1.6036   -1.6246 C.ar    1  UNL1        0.0000
     44 C           6.6063   -1.3535   -0.7286 C.ar    1  UNL1        0.0000
     45 C           5.6367   -2.3386   -0.6100 C.ar    1  UNL1        0.0000
     46 C           4.4173   -2.3895    0.2314 C.2     1  UNL1        0.0000
     47 C           3.2665    2.0539    1.8563 C.3     1  UNL1        0.0000
     48 C           2.6703    2.9981    2.9314 C.3     1  UNL1        0.0000
     49 C           3.7515    3.8608    3.5873 C.3     1  UNL1        0.0000
     50 C           4.8215    2.9941    4.2587 C.3     1  UNL1        0.0000
     51 C           5.4171    1.9957    3.2613 C.3     1  UNL1        0.0000
     52 C           4.3376    1.1735    2.5490 C.3     1  UNL1        0.0000
     53 C           2.9178    3.6720   -0.0224 C.2     1  UNL1        0.0000
     54 C           3.6066    4.0222   -1.2875 C.ar    1  UNL1        0.0000
     55 C           3.2029    4.8409   -2.3312 C.ar    1  UNL1        0.0000
     56 C           4.0670    4.9499   -3.4272 C.ar    1  UNL1        0.0000
     57 C           5.2844    4.2568   -3.4611 C.ar    1  UNL1        0.0000
     58 C           5.6770    3.4306   -2.4011 C.ar    1  UNL1        0.0000
     59 C           4.8130    3.3317   -1.3217 C.ar    1  UNL1        0.0000
     60 C           4.9288    2.5215   -0.0776 C.2     1  UNL1        0.0000
     61 C          -1.8698    3.2642   -0.0880 C.3     1  UNL1        0.0000
     62 C          -1.7343    3.9814    1.2758 C.3     1  UNL1        0.0000
     63 C          -2.3438    5.3876    1.2765 C.3     1  UNL1        0.0000
     64 C          -1.7731    6.2600    0.1536 C.3     1  UNL1        0.0000
     65 C          -1.9016    5.5536   -1.2000 C.3     1  UNL1        0.0000
     66 C          -1.2395    4.1723   -1.1686 C.3     1  UNL1        0.0000
     67 C          -3.6576    2.4906   -1.7324 C.2     1  UNL1        0.0000
     68 C          -5.1188    2.2269   -1.6863 C.ar    1  UNL1        0.0000
     69 C          -5.9723    1.7735   -2.6791 C.ar    1  UNL1        0.0000
     70 C          -7.3059    1.5423   -2.3198 C.ar    1  UNL1        0.0000
     71 C          -7.7481    1.7606   -1.0087 C.ar    1  UNL1        0.0000
     72 C          -6.8703    2.2115   -0.0148 C.ar    1  UNL1        0.0000
     73 C          -5.5536    2.4349   -0.3843 C.ar    1  UNL1        0.0000
     74 C          -4.3804    2.8297    0.4457 C.2     1  UNL1        0.0000
     75 H          -1.7932   -3.6501   -2.3928 H       1  UNL1        0.0000
     76 H          -2.4108   -4.3202   -0.8822 H       1  UNL1        0.0000
     77 H          -3.3984   -5.4352   -2.8838 H       1  UNL1        0.0000
     78 H          -4.6230   -4.6813   -1.8806 H       1  UNL1        0.0000
     79 H          -5.1225   -4.1656   -4.2350 H       1  UNL1        0.0000
     80 H          -3.4854   -3.5740   -4.5037 H       1  UNL1        0.0000
     81 H          -5.0126   -1.6461   -4.1796 H       1  UNL1        0.0000
     82 H          -5.5485   -2.2929   -2.6339 H       1  UNL1        0.0000
     83 H          -3.7789   -0.5033   -2.3638 H       1  UNL1        0.0000
     84 H          -2.6698   -1.4758   -3.3052 H       1  UNL1        0.0000
     85 H          -7.0799   -2.4984    4.5076 H       1  UNL1        0.0000
     86 H          -6.7333   -0.0742    4.2486 H       1  UNL1        0.0000
     87 H          -5.4265    0.8333    2.3084 H       1  UNL1        0.0000
     88 H           1.4320   -4.4320   -1.3314 H       1  UNL1        0.0000
     89 H           2.1831   -5.7712   -0.4743 H       1  UNL1        0.0000
     90 H          -0.3443   -4.3047    0.4791 H       1  UNL1        0.0000
     91 H          -0.2946   -5.8871   -0.2849 H       1  UNL1        0.0000
     92 H           1.0773   -6.7844    1.5773 H       1  UNL1        0.0000
     93 H          -0.4151   -6.0961    2.2124 H       1  UNL1        0.0000
     94 H           1.6267   -5.4197    3.5518 H       1  UNL1        0.0000
     95 H           0.7400   -4.0446    2.9008 H       1  UNL1        0.0000
     96 H           3.3350   -5.2514    1.8333 H       1  UNL1        0.0000
     97 H           3.1246   -3.6473    2.5422 H       1  UNL1        0.0000
     98 H           6.7539   -4.6985   -2.8023 H       1  UNL1        0.0000
     99 H           8.5429   -2.9547   -3.0434 H       1  UNL1        0.0000
    100 H           8.4334   -0.8590   -1.7533 H       1  UNL1        0.0000
    101 H           2.2044    2.3521    3.6805 H       1  UNL1        0.0000
    102 H           1.8836    3.6127    2.5000 H       1  UNL1        0.0000
    103 H           3.2821    4.5291    4.3177 H       1  UNL1        0.0000
    104 H           4.2176    4.5038    2.8292 H       1  UNL1        0.0000
    105 H           5.6113    3.6204    4.6892 H       1  UNL1        0.0000
    106 H           4.3624    2.4460    5.0930 H       1  UNL1        0.0000
    107 H           6.0983    1.3052    3.7714 H       1  UNL1        0.0000
    108 H           6.0186    2.5255    2.5160 H       1  UNL1        0.0000
    109 H           4.7718    0.4719    1.8442 H       1  UNL1        0.0000
    110 H           3.7811    0.5807    3.2831 H       1  UNL1        0.0000
    111 H           3.7895    5.5773   -4.2682 H       1  UNL1        0.0000
    112 H           5.9296    4.3599   -4.3278 H       1  UNL1        0.0000
    113 H           6.6117    2.8810   -2.4176 H       1  UNL1        0.0000
    114 H          -0.6545    4.0557    1.4488 H       1  UNL1        0.0000
    115 H          -2.1568    3.3702    2.0682 H       1  UNL1        0.0000
    116 H          -2.1569    5.8492    2.2528 H       1  UNL1        0.0000
    117 H          -3.4320    5.3152    1.1768 H       1  UNL1        0.0000
    118 H          -2.2770    7.2334    0.1328 H       1  UNL1        0.0000
    119 H          -0.7102    6.4540    0.3518 H       1  UNL1        0.0000
    120 H          -2.9624    5.4536   -1.4660 H       1  UNL1        0.0000
    121 H          -1.4402    6.1540   -1.9924 H       1  UNL1        0.0000
    122 H          -1.2835    3.6867   -2.1393 H       1  UNL1        0.0000
    123 H          -0.1850    4.2780   -0.9007 H       1  UNL1        0.0000
    124 H          -5.6100    1.5989   -3.6864 H       1  UNL1        0.0000
    125 H          -8.0089    1.1851   -3.0655 H       1  UNL1        0.0000
    126 H          -8.7874    1.5705   -0.7599 H       1  UNL1        0.0000
    127 O          -3.8676    0.1106   -0.1537 O.2     1  UNL1        0.0000
    128 O          -4.4349   -4.4199    0.4284 O.2     1  UNL1        0.0000
    129 O           4.2219   -5.4515   -1.4467 O.2     1  UNL1        0.0000
    130 O           4.0291   -1.5932    1.0656 O.2     1  UNL1        0.0000
    131 O           1.8017    4.0092    0.3234 O.2     1  UNL1        0.0000
    132 O           5.8338    1.7568    0.1944 O.2     1  UNL1        0.0000
    133 O          -4.3903    3.0035    1.6498 O.2     1  UNL1        0.0000
    134 O          -2.9222    2.3175   -2.6818 O.2     1  UNL1        0.0000
    135 H          -6.1211   -4.1128    2.8429 H       1  UNL1        0.0000
    136 H           6.5400   -0.4256   -0.1711 H       1  UNL1        0.0000
    137 H           2.2536    5.3640   -2.2948 H       1  UNL1        0.0000
    138 H          -7.1985    2.3717    1.0064 H       1  UNL1        0.0000
@<TRIPOS>BOND
     1     1     9    1
     2     1    12    1
     3     2    10    1
     4     2    11    1
     5     2     1    1
     6     3    14    1
     7     4    47    1
     8     4    12    1
     9     5    33    1
    10     5     9    1
    11     6     7    1
    12     7     1    1
    13     8     2    1
    14     8     6    1
    15    10     5    1
    16    11     4    1
    17    13     2    1
    18    13     3    1
    19    14     1    1
    20    15    32   am
    21    15    25   am
    22    16    46   am
    23    16    33    1
    24    17    47    1
    25    18    61    1
    26    18    74   am
    27    19     6    1
    28    19    15    1
    29    20    19    1
    30    20    76    1
    31    21    78    1
    32    21    20    1
    33    22    23    1
    34    22    21    1
    35    23    82    1
    36    23    24    1
    37    24    83    1
    38    24    19    1
    39    25    26    1
    40    26    27   ar
    41    27   135    1
    42    27    28   ar
    43    28    85    1
    44    29    28   ar
    45    29    86    1
    46    30    29   ar
    47    31    26   ar
    48    31    30   ar
    49    32    31    1
    50    33    38    1
    51    34    35    1
    52    34    33    1
    53    35    90    1
    54    35    36    1
    55    36    93    1
    56    36    37    1
    57    37    95    1
    58    37    94    1
    59    38    97    1
    60    38    37    1
    61    39    16   am
    62    40    39    1
    63    40    45   ar
    64    41    40   ar
    65    42    41   ar
    66    42    43   ar
    67    43    44   ar
    68    44    45   ar
    69    44   136    1
    70    45    46    1
    71    46   130    2
    72    47    52    1
    73    47    48    1
    74    48    49    1
    75    48   101    1
    76    49    50    1
    77    49   103    1
    78    50   105    1
    79    50   106    1
    80    51   107    1
    81    51    50    1
    82    52    51    1
    83    52   110    1
    84    53   131    2
    85    53    17   am
    86    54    53    1
    87    55   137    1
    88    55    54   ar
    89    56    55   ar
    90    57    56   ar
    91    57    58   ar
    92    58    59   ar
    93    59    54   ar
    94    59    60    1
    95    60   132    2
    96    60    17   am
    97    61     3    1
    98    61    62    1
    99    62    63    1
   100    62   114    1
   101    62   115    1
   102    63   116    1
   103    64   119    1
   104    64    63    1
   105    65    66    1
   106    65    64    1
   107    66   123    1
   108    66    61    1
   109    67    68    1
   110    67    18   am
   111    68    73   ar
   112    69    70   ar
   113    69    68   ar
   114    70    71   ar
   115    71   126    1
   116    71    72   ar
   117    72   138    1
   118    73    72   ar
   119    73    74    1
   120    74   133    2
   121    75    20    1
   122    77    21    1
   123    79    22    1
   124    80    22    1
   125    81    23    1
   126    84    24    1
   127    87    30    1
   128    88    34    1
   129    89    34    1
   130    91    35    1
   131    92    36    1
   132    96    38    1
   133    98    41    1
   134    99    42    1
   135   100    43    1
   136   102    48    1
   137   104    49    1
   138   108    51    1
   139   109    52    1
   140   111    56    1
   141   112    57    1
   142   113    58    1
   143   117    63    1
   144   118    64    1
   145   120    65    1
   146   121    65    1
   147   122    66    1
   148   124    69    1
   149   125    70    1
   150   127    32    2
   151   128    25    2
   152   129    39    2
   153   134    67    2
