@<TRIPOS>MOLECULE
RhRh_cis-Cy-fused-Hback-S-PTV4_12_sp
 146 157 0 0 0
SMALL
GASTEIGER

@<TRIPOS>ATOM
      1 Rh          0.2014   -0.0504    0.2561 Rh      1  UNL1        0.0000
      2 Rh          0.1102   -0.0044   -2.1349 Rh      1  UNL1        0.0000
      3 C           0.9997   -2.5063   -1.0341 C.3     1  UNL1        0.0000
      4 C          -0.6864    2.4468   -0.8448 C.3     1  UNL1        0.0000
      5 C           2.6295    0.8227   -1.0221 C.3     1  UNL1        0.0000
      6 C          -2.3153   -0.8859   -0.8576 C.3     1  UNL1        0.0000
      7 O          -1.7221   -0.7372    0.2592 O.3     1  UNL1        0.0000
      8 O          -1.8113   -0.7192   -2.0051 O.3     1  UNL1        0.0000
      9 O           0.8672   -1.9731    0.1162 O.3     1  UNL1        0.0000
     10 O           0.8290   -1.9344   -2.1475 O.3     1  UNL1        0.0000
     11 O           2.1214    0.6259    0.1286 O.3     1  UNL1        0.0000
     12 O           2.0391    0.7017   -2.1330 O.3     1  UNL1        0.0000
     13 O          -0.4669    1.8742    0.2707 O.3     1  UNL1        0.0000
     14 O          -0.6017    1.9167   -1.9907 O.3     1  UNL1        0.0000
     15 N          -4.4126   -0.4665    0.2491 N.am    1  UNL1        0.0000
     16 N           0.5333   -4.6124    0.0092 N.am    1  UNL1        0.0000
     17 N           4.7637    0.3675   -0.0327 N.am    1  UNL1        0.0000
     18 N          -0.1476    4.5609    0.1726 N.am    1  UNL1        0.0000
     19 C          -5.2159   -0.9786    1.2659 C.2     1  UNL1        0.0000
     20 C          -4.2080    0.9069    0.3503 C.2     1  UNL1        0.0000
     21 C          -0.8519   -4.4358    0.0435 C.2     1  UNL1        0.0000
     22 C           1.0336   -5.0700    1.2386 C.2     1  UNL1        0.0000
     23 C           4.6730   -1.0212   -0.0664 C.2     1  UNL1        0.0000
     24 C           5.3332    0.8524    1.1423 C.2     1  UNL1        0.0000
     25 C           1.2334    4.3804    0.1135 C.2     1  UNL1        0.0000
     26 C          -0.5628    5.1810    1.3540 C.2     1  UNL1        0.0000
     27 C          -3.7670   -1.3378   -0.7343 C.3     1  UNL1        0.0000
     28 C          -4.5923   -1.4951   -2.0264 C.3     1  UNL1        0.0000
     29 C          -4.7967   -0.1913   -2.8055 C.3     1  UNL1        0.0000
     30 C          -4.0137   -2.6099   -2.9093 C.3     1  UNL1        0.0000
     31 C           1.4174   -3.9754   -0.9738 C.3     1  UNL1        0.0000
     32 C           1.5658   -4.7473   -2.2970 C.3     1  UNL1        0.0000
     33 C           2.7098   -4.1498   -3.1306 C.3     1  UNL1        0.0000
     34 C           0.2788   -4.8825   -3.1183 C.3     1  UNL1        0.0000
     35 C           4.0989    1.2398   -0.9984 C.3     1  UNL1        0.0000
     36 C           4.7852    1.2924   -2.3761 C.3     1  UNL1        0.0000
     37 C           4.2731    2.5090   -3.1599 C.3     1  UNL1        0.0000
     38 C           6.3088    1.3565   -2.2186 C.3     1  UNL1        0.0000
     39 C          -1.1128    3.9067   -0.7155 C.3     1  UNL1        0.0000
     40 C          -1.3997    4.6949   -2.0071 C.3     1  UNL1        0.0000
     41 C          -0.1938    4.8595   -2.9386 C.3     1  UNL1        0.0000
     42 C          -2.6108    4.0984   -2.7398 C.3     1  UNL1        0.0000
     43 C           0.6403    4.7142    3.4999 C.3     1  UNL1        0.0000
     44 C           0.6711    5.5194    2.1819 C.3     1  UNL1        0.0000
     45 C           1.8666    5.1307    1.2782 C.3     1  UNL1        0.0000
     46 C           2.9358    4.2948    1.9941 C.3     1  UNL1        0.0000
     47 C           2.3520    3.0177    2.6239 C.3     1  UNL1        0.0000
     48 C           0.9449    3.2331    3.2406 C.3     1  UNL1        0.0000
     49 C           4.6433   -2.6753    1.8656 C.3     1  UNL1        0.0000
     50 C           4.9251   -0.3201    3.3226 C.3     1  UNL1        0.0000
     51 C           3.4668   -0.7202    3.0686 C.3     1  UNL1        0.0000
     52 C           3.3366   -2.1521    2.4885 C.3     1  UNL1        0.0000
     53 C           5.7341   -0.3371    2.0076 C.3     1  UNL1        0.0000
     54 C           5.4283   -1.5791    1.1329 C.3     1  UNL1        0.0000
     55 C          -2.4830   -3.3099    2.6356 C.3     1  UNL1        0.0000
     56 C          -2.6806   -4.6019    1.8385 C.3     1  UNL1        0.0000
     57 C          -0.0683   -3.8561    3.0714 C.3     1  UNL1        0.0000
     58 C          -1.4122   -3.5046    3.7140 C.3     1  UNL1        0.0000
     59 C          -1.3717   -5.1627    1.2760 C.3     1  UNL1        0.0000
     60 C          -0.1385   -5.1436    2.2066 C.3     1  UNL1        0.0000
     61 C          -7.5722    0.9216    0.5350 C.3     1  UNL1        0.0000
     62 C          -7.2473    0.3521    1.9211 C.3     1  UNL1        0.0000
     63 C          -5.7954    2.6355    1.2913 C.3     1  UNL1        0.0000
     64 C          -6.9237    2.3127    0.2944 C.3     1  UNL1        0.0000
     65 C          -4.9266    1.4092    1.5944 C.3     1  UNL1        0.0000
     66 C          -5.7242    0.1864    2.1071 C.3     1  UNL1        0.0000
     67 H          -3.7164   -2.3190   -0.2524 H       1  UNL1        0.0000
     68 H          -5.4215   -0.3824   -3.6838 H       1  UNL1        0.0000
     69 H          -3.8422    0.2188   -3.1403 H       1  UNL1        0.0000
     70 H          -5.2943    0.5710   -2.2006 H       1  UNL1        0.0000
     71 H          -3.8300   -3.5210   -2.3324 H       1  UNL1        0.0000
     72 H          -3.0653   -2.3031   -3.3538 H       1  UNL1        0.0000
     73 H          -4.7148   -2.8471   -3.7153 H       1  UNL1        0.0000
     74 H           2.3994   -3.9662   -0.4898 H       1  UNL1        0.0000
     75 H           2.4290   -3.1743   -3.5325 H       1  UNL1        0.0000
     76 H           2.9467   -4.8136   -3.9677 H       1  UNL1        0.0000
     77 H           3.6153   -4.0133   -2.5317 H       1  UNL1        0.0000
     78 H          -0.1042   -3.9026   -3.4089 H       1  UNL1        0.0000
     79 H          -0.5085   -5.3982   -2.5648 H       1  UNL1        0.0000
     80 H           0.4856   -5.4586   -4.0262 H       1  UNL1        0.0000
     81 H           4.1232    2.2364   -0.5448 H       1  UNL1        0.0000
     82 H           3.1874    2.4951   -3.2603 H       1  UNL1        0.0000
     83 H           4.7147    2.5255   -4.1610 H       1  UNL1        0.0000
     84 H           4.5549    3.4383   -2.6516 H       1  UNL1        0.0000
     85 H           6.7133    0.4473   -1.7656 H       1  UNL1        0.0000
     86 H           6.6029    2.2057   -1.5913 H       1  UNL1        0.0000
     87 H           6.7821    1.4807   -3.1970 H       1  UNL1        0.0000
     88 H          -2.0403    3.8746   -0.1344 H       1  UNL1        0.0000
     89 H           0.1587    3.8903   -3.2957 H       1  UNL1        0.0000
     90 H           0.6419    5.3563   -2.4406 H       1  UNL1        0.0000
     91 H          -0.4795    5.4669   -3.8036 H       1  UNL1        0.0000
     92 H          -3.4583    3.9567   -2.0622 H       1  UNL1        0.0000
     93 H          -2.3656    3.1261   -3.1711 H       1  UNL1        0.0000
     94 H          -2.9239    4.7668   -3.5478 H       1  UNL1        0.0000
     95 H          -5.5740   -1.8347   -1.6682 H       1  UNL1        0.0000
     96 H           1.8741   -5.7536   -1.9817 H       1  UNL1        0.0000
     97 H           4.5192    0.3786   -2.9172 H       1  UNL1        0.0000
     98 H          -1.6887    5.6920   -1.6473 H       1  UNL1        0.0000
     99 H           0.6467    6.5898    2.4060 H       1  UNL1        0.0000
    100 H           0.8485    2.6694    4.1745 H       1  UNL1        0.0000
    101 H          -0.3445    4.8403    3.9593 H       1  UNL1        0.0000
    102 H           3.7359    4.0303    1.2997 H       1  UNL1        0.0000
    103 H           3.3877    4.9282    2.7656 H       1  UNL1        0.0000
    104 H           3.0543    2.6578    3.3822 H       1  UNL1        0.0000
    105 H           2.2967    2.2409    1.8586 H       1  UNL1        0.0000
    106 H           0.1840    2.8319    2.5611 H       1  UNL1        0.0000
    107 H           1.3773    5.1383    4.1912 H       1  UNL1        0.0000
    108 H           2.3325    6.0262    0.8495 H       1  UNL1        0.0000
    109 H           2.5513   -2.1629    1.7302 H       1  UNL1        0.0000
    110 H           5.2978   -3.0831    2.6439 H       1  UNL1        0.0000
    111 H           5.3914   -1.0099    4.0351 H       1  UNL1        0.0000
    112 H           4.9890    0.6831    3.7546 H       1  UNL1        0.0000
    113 H           3.0269   -0.0026    2.3686 H       1  UNL1        0.0000
    114 H           2.8937   -0.6317    3.9976 H       1  UNL1        0.0000
    115 H           3.0254   -2.8567    3.2653 H       1  UNL1        0.0000
    116 H           4.4235   -3.4976    1.1806 H       1  UNL1        0.0000
    117 H           6.8002   -0.2412    2.2338 H       1  UNL1        0.0000
    118 H           6.3571   -2.0060    0.7356 H       1  UNL1        0.0000
    119 H          -3.1247   -5.3619    2.4927 H       1  UNL1        0.0000
    120 H          -3.3832   -4.4439    1.0152 H       1  UNL1        0.0000
    121 H          -1.2966   -2.5928    4.3113 H       1  UNL1        0.0000
    122 H          -3.4392   -3.0113    3.0752 H       1  UNL1        0.0000
    123 H           0.2356   -3.0206    2.4294 H       1  UNL1        0.0000
    124 H           0.7215   -3.9833    3.8172 H       1  UNL1        0.0000
    125 H          -1.7204   -4.3001    4.4068 H       1  UNL1        0.0000
    126 H          -2.1772   -2.5011    1.9608 H       1  UNL1        0.0000
    127 H          -1.5409   -6.1974    0.9466 H       1  UNL1        0.0000
    128 H          -0.0678   -6.0300    2.8411 H       1  UNL1        0.0000
    129 H          -7.6286    1.0190    2.7024 H       1  UNL1        0.0000
    130 H          -7.7269   -0.6205    2.0663 H       1  UNL1        0.0000
    131 H          -6.5237    2.3556   -0.7241 H       1  UNL1        0.0000
    132 H          -8.6570    0.9813    0.4061 H       1  UNL1        0.0000
    133 H          -5.1607    3.4365    0.9027 H       1  UNL1        0.0000
    134 H          -6.2149    2.9950    2.2370 H       1  UNL1        0.0000
    135 H          -7.6815    3.1000    0.3577 H       1  UNL1        0.0000
    136 H          -7.2199    0.2132   -0.2244 H       1  UNL1        0.0000
    137 H          -4.1390    1.6864    2.3047 H       1  UNL1        0.0000
    138 H          -5.5061   -0.0432    3.1540 H       1  UNL1        0.0000
    139 O           4.0777   -1.6436   -0.9270 O.2     1  UNL1        0.0000
    140 O           5.4416    2.0318    1.4158 O.2     1  UNL1        0.0000
    141 O          -1.4932   -3.8141   -0.7820 O.2     1  UNL1        0.0000
    142 O           2.2109   -5.2499    1.4721 O.2     1  UNL1        0.0000
    143 O          -3.5543    1.5683   -0.4343 O.2     1  UNL1        0.0000
    144 O          -5.4702   -2.1589    1.4060 O.2     1  UNL1        0.0000
    145 O           1.8063    3.7210   -0.7340 O.2     1  UNL1        0.0000
    146 O          -1.7255    5.3538    1.6587 O.2     1  UNL1        0.0000
@<TRIPOS>BOND
     1     1     7    1
     2     1    13    1
     3     2    12    1
     4     2     8    1
     5     2    14    1
     6     2     1    1
     7     3    31    1
     8     3     9    1
     9     4    39    1
    10     4    13    1
    11     5    35    1
    12     5    11    1
    13     6    27    1
    14     6     7    1
    15     8     6    1
    16     9     1    1
    17    10     2    1
    18    10     3    1
    19    11     1    1
    20    12     5    1
    21    14     4    1
    22    15    20   am
    23    15    19   am
    24    16    21   am
    25    16    22   am
    26    17    24   am
    27    18    26   am
    28    19   144    2
    29    19    66    1
    30    20    65    1
    31    21    59    1
    32    22   142    2
    33    22    60    1
    34    23    17   am
    35    23    54    1
    36    24   140    2
    37    24    53    1
    38    25    18   am
    39    25    45    1
    40    26   146    2
    41    26    44    1
    42    27    67    1
    43    27    15    1
    44    28    95    1
    45    28    27    1
    46    29    70    1
    47    29    28    1
    48    30    71    1
    49    30    28    1
    50    31    74    1
    51    31    16    1
    52    32    96    1
    53    32    31    1
    54    33    77    1
    55    33    32    1
    56    34    79    1
    57    34    32    1
    58    35    81    1
    59    35    17    1
    60    36    38    1
    61    36    35    1
    62    37    84    1
    63    37    36    1
    64    38    85    1
    65    38    86    1
    66    39    88    1
    67    39    18    1
    68    40    98    1
    69    40    39    1
    70    41    90    1
    71    41    40    1
    72    42    92    1
    73    42    40    1
    74    43   101    1
    75    43   107    1
    76    44    99    1
    77    44    43    1
    78    45   108    1
    79    45    46    1
    80    45    44    1
    81    46    47    1
    82    46   103    1
    83    47    48    1
    84    47   104    1
    85    48    43    1
    86    48   100    1
    87    49    52    1
    88    49   110    1
    89    50   112    1
    90    50   111    1
    91    51    50    1
    92    51   114    1
    93    52    51    1
    94    52   115    1
    95    53   117    1
    96    53    50    1
    97    54   118    1
    98    54    49    1
    99    54    53    1
   100    55   122    1
   101    55    58    1
   102    56   119    1
   103    56    55    1
   104    57    58    1
   105    57   124    1
   106    58   121    1
   107    58   125    1
   108    59   127    1
   109    59    56    1
   110    59    60    1
   111    60   128    1
   112    60    57    1
   113    61    62    1
   114    62   130    1
   115    62    66    1
   116    62   129    1
   117    63    65    1
   118    63   134    1
   119    64   135    1
   120    64    61    1
   121    64    63    1
   122    65    66    1
   123    65   137    1
   124    66   138    1
   125    68    29    1
   126    69    29    1
   127    72    30    1
   128    73    30    1
   129    75    33    1
   130    76    33    1
   131    78    34    1
   132    80    34    1
   133    82    37    1
   134    83    37    1
   135    87    38    1
   136    89    41    1
   137    91    41    1
   138    93    42    1
   139    94    42    1
   140    97    36    1
   141   102    46    1
   142   105    47    1
   143   106    48    1
   144   109    52    1
   145   113    51    1
   146   116    49    1
   147   120    56    1
   148   123    57    1
   149   126    55    1
   150   131    64    1
   151   132    61    1
   152   133    63    1
   153   136    61    1
   154   139    23    2
   155   141    21    2
   156   143    20    2
   157   145    25    2
