@<TRIPOS>MOLECULE
RhRh_pFPh-O2C4_C4_sp
 58 65 0 0 0
SMALL
GASTEIGER

@<TRIPOS>ATOM
      1 Rh          0.0001   -0.0000   -1.1936 Rh      1  UNL1        0.0000
      2 Rh         -0.0000    0.0000    1.1936 Rh      1  UNL1        0.0000
      3 C           1.8648   -1.8658   -0.0000 C.3     1  UNL1        0.0000
      4 C          -1.8659   -1.8646   -0.0000 C.3     1  UNL1        0.0000
      5 C           1.8659    1.8647    0.0000 C.3     1  UNL1        0.0000
      6 C          -1.8647    1.8658    0.0000 C.3     1  UNL1        0.0000
      7 O          -1.4517   -1.4507   -1.1341 O.3     1  UNL1        0.0000
      8 O          -1.4517   -1.4507    1.1341 O.3     1  UNL1        0.0000
      9 O           1.4517    1.4507    1.1341 O.3     1  UNL1        0.0000
     10 O           1.4518    1.4506   -1.1341 O.3     1  UNL1        0.0000
     11 O           1.4508   -1.4516   -1.1341 O.3     1  UNL1        0.0000
     12 O           1.4507   -1.4517    1.1341 O.3     1  UNL1        0.0000
     13 O          -1.4507    1.4516    1.1341 O.3     1  UNL1        0.0000
     14 O          -1.4507    1.4516   -1.1341 O.3     1  UNL1        0.0000
     15 F          -5.8190    5.8213   -0.0000 F       1  UNL1        0.0000
     16 F           5.8189   -5.8215    0.0000 F       1  UNL1        0.0000
     17 F           5.8220    5.8184    0.0000 F       1  UNL1        0.0000
     18 F          -5.8221   -5.8182   -0.0000 F       1  UNL1        0.0000
     19 C          -2.9158   -2.9138   -0.0000 C.ar    1  UNL1        0.0000
     20 C          -3.4124   -3.4102    1.2130 C.ar    1  UNL1        0.0000
     21 C          -4.3958   -4.3929    1.2192 C.ar    1  UNL1        0.0000
     22 C          -4.8701   -4.8668   -0.0000 C.ar    1  UNL1        0.0000
     23 C          -4.3959   -4.3929   -1.2193 C.ar    1  UNL1        0.0000
     24 C          -3.4125   -3.4101   -1.2131 C.ar    1  UNL1        0.0000
     25 C           2.9158    2.9139    0.0000 C.ar    1  UNL1        0.0000
     26 C           3.4125    3.4101   -1.2130 C.ar    1  UNL1        0.0000
     27 C           4.3959    4.3929   -1.2192 C.ar    1  UNL1        0.0000
     28 C           4.8700    4.8670    0.0000 C.ar    1  UNL1        0.0000
     29 C           4.3956    4.3932    1.2193 C.ar    1  UNL1        0.0000
     30 C           3.4122    3.4104    1.2131 C.ar    1  UNL1        0.0000
     31 C           2.9141   -2.9156    0.0000 C.ar    1  UNL1        0.0000
     32 C           3.4104   -3.4122   -1.2130 C.ar    1  UNL1        0.0000
     33 C           4.3933   -4.3955   -1.2192 C.ar    1  UNL1        0.0000
     34 C           4.8674   -4.8696    0.0000 C.ar    1  UNL1        0.0000
     35 C           4.3934   -4.3954    1.2193 C.ar    1  UNL1        0.0000
     36 C           3.4105   -3.4121    1.2131 C.ar    1  UNL1        0.0000
     37 C          -2.9141    2.9155   -0.0000 C.ar    1  UNL1        0.0000
     38 C          -3.4106    3.4119    1.2130 C.ar    1  UNL1        0.0000
     39 C          -4.3936    4.3952    1.2192 C.ar    1  UNL1        0.0000
     40 C          -4.8675    4.8694   -0.0000 C.ar    1  UNL1        0.0000
     41 C          -4.3933    4.3954   -1.2193 C.ar    1  UNL1        0.0000
     42 C          -3.4104    3.4122   -1.2131 C.ar    1  UNL1        0.0000
     43 H          -3.0184   -3.0165    2.1422 H       1  UNL1        0.0000
     44 H          -4.7975   -4.7944    2.1424 H       1  UNL1        0.0000
     45 H          -4.7976   -4.7943   -2.1424 H       1  UNL1        0.0000
     46 H           3.0187    3.0163   -2.1422 H       1  UNL1        0.0000
     47 H           4.7977    4.7943   -2.1424 H       1  UNL1        0.0000
     48 H           4.7972    4.7948    2.1424 H       1  UNL1        0.0000
     49 H           3.0182    3.0168    2.1422 H       1  UNL1        0.0000
     50 H           3.0167   -3.0184   -2.1422 H       1  UNL1        0.0000
     51 H           4.7948   -4.7972   -2.1423 H       1  UNL1        0.0000
     52 H           4.7950   -4.7970    2.1424 H       1  UNL1        0.0000
     53 H           3.0168   -3.0182    2.1422 H       1  UNL1        0.0000
     54 H          -3.0170    3.0180    2.1422 H       1  UNL1        0.0000
     55 H          -4.7952    4.7967    2.1423 H       1  UNL1        0.0000
     56 H          -4.7947    4.7972   -2.1424 H       1  UNL1        0.0000
     57 H          -3.0186   -3.0164   -2.1422 H       1  UNL1        0.0000
     58 H          -3.0165    3.0184   -2.1422 H       1  UNL1        0.0000
@<TRIPOS>BOND
     1     1    11    1
     2     1     7    1
     3     1    10    1
     4     1    14    1
     5     1     2    1
     6     3    31    1
     7     3    12    1
     8     4     8    1
     9     5     9    1
    10     6    13    1
    11     7     4    1
    12     8     2    1
    13     9     2    1
    14    10     5    1
    15    11     3    1
    16    12     2    1
    17    13     2    1
    18    14     6    1
    19    15    40    1
    20    17    28    1
    21    18    22    1
    22    19     4    1
    23    19    20   ar
    24    20    21   ar
    25    20    43    1
    26    21    44    1
    27    22    21   ar
    28    23    24   ar
    29    23    22   ar
    30    24    19   ar
    31    25     5    1
    32    25    30   ar
    33    26    25   ar
    34    27    26   ar
    35    27    28   ar
    36    28    29   ar
    37    29    48    1
    38    30    29   ar
    39    30    49    1
    40    31    36   ar
    41    32    31   ar
    42    33    32   ar
    43    33    34   ar
    44    34    16    1
    45    34    35   ar
    46    35    52    1
    47    36    35   ar
    48    36    53    1
    49    37     6    1
    50    37    38   ar
    51    38    39   ar
    52    38    54    1
    53    39    55    1
    54    40    39   ar
    55    41    42   ar
    56    41    40   ar
    57    42    37   ar
    58    45    23    1
    59    46    26    1
    60    47    27    1
    61    50    32    1
    62    51    33    1
    63    56    41    1
    64    57    24    1
    65    58    42    1
