@<TRIPOS>MOLECULE
RhRh_ACyPentyl4_12_sp
 126 141 0 0 0
SMALL
GASTEIGER

@<TRIPOS>ATOM
      1 Rh         -1.1755    0.3963    1.2792 Rh      1  UNL1        0.0000
      2 Rh         -0.1121    0.7350   -0.8373 Rh      1  UNL1        0.0000
      3 C          -0.9221   -1.9866   -0.3311 C.3     1  UNL1        0.0000
      4 C          -2.9807    1.0064   -0.8857 C.3     1  UNL1        0.0000
      5 C          -0.3280    3.1133    0.7729 C.3     1  UNL1        0.0000
      6 C           1.6809    0.0186    1.3026 C.3     1  UNL1        0.0000
      7 O          -1.4219   -1.5706    0.7599 O.3     1  UNL1        0.0000
      8 O          -0.2803   -1.2847   -1.1737 O.3     1  UNL1        0.0000
      9 O           0.6735   -0.0491    2.0690 O.3     1  UNL1        0.0000
     10 O           1.6852    0.4482    0.1061 O.3     1  UNL1        0.0000
     11 O           0.0013    2.7304   -0.3954 O.3     1  UNL1        0.0000
     12 O          -0.8786    2.4071    1.6681 O.3     1  UNL1        0.0000
     13 O          -1.9772    1.0242   -1.6580 O.3     1  UNL1        0.0000
     14 O          -2.9654    0.8185    0.3718 O.3     1  UNL1        0.0000
     15 N           0.1428   -4.1872   -0.3354 N.am    1  UNL1        0.0000
     16 N           3.8929   -0.7660    0.7356 N.am    1  UNL1        0.0000
     17 N           1.2663    4.8825    0.4772 N.am    1  UNL1        0.0000
     18 N          -5.3000    0.3575   -0.8726 N.am    1  UNL1        0.0000
     19 C          -1.1127   -3.4684   -0.6810 C.3     1  UNL1        0.0000
     20 C          -1.5175   -3.6441   -2.1606 C.3     1  UNL1        0.0000
     21 C          -2.0714   -5.0780   -2.2348 C.3     1  UNL1        0.0000
     22 C          -2.5849   -5.3971   -0.8001 C.3     1  UNL1        0.0000
     23 C          -2.3160   -4.1255    0.0278 C.3     1  UNL1        0.0000
     24 C           1.1820   -4.5755   -1.2122 C.2     1  UNL1        0.0000
     25 C           2.2487   -5.1688   -0.3564 C.ar    1  UNL1        0.0000
     26 C           3.4707   -5.7148   -0.7145 C.ar    1  UNL1        0.0000
     27 C           4.3160   -6.1304    0.3217 C.ar    1  UNL1        0.0000
     28 C           3.9362   -5.9953    1.6635 C.ar    1  UNL1        0.0000
     29 C           2.6976   -5.4416    2.0104 C.ar    1  UNL1        0.0000
     30 C           1.8712   -5.0381    0.9738 C.ar    1  UNL1        0.0000
     31 C           0.5473   -4.3656    1.0136 C.2     1  UNL1        0.0000
     32 C           3.0216   -0.4525    1.8853 C.3     1  UNL1        0.0000
     33 C           3.5930    0.6255    2.8446 C.3     1  UNL1        0.0000
     34 C           4.3821   -0.1749    3.8812 C.3     1  UNL1        0.0000
     35 C           3.4421   -1.3528    4.1680 C.3     1  UNL1        0.0000
     36 C           2.8695   -1.7305    2.7869 C.3     1  UNL1        0.0000
     37 C           3.3986   -1.6934   -0.2043 C.2     1  UNL1        0.0000
     38 C           4.3262   -1.6858   -1.3552 C.ar    1  UNL1        0.0000
     39 C           4.2974   -2.4156   -2.5341 C.ar    1  UNL1        0.0000
     40 C           5.3252   -2.1681   -3.4537 C.ar    1  UNL1        0.0000
     41 C           6.3268   -1.2256   -3.1865 C.ar    1  UNL1        0.0000
     42 C           6.3355   -0.4920   -1.9924 C.ar    1  UNL1        0.0000
     43 C           5.3163   -0.7418   -1.0880 C.ar    1  UNL1        0.0000
     44 C           5.0333   -0.1126    0.2397 C.2     1  UNL1        0.0000
     45 C          -0.0451    4.5964    1.0748 C.3     1  UNL1        0.0000
     46 C          -1.2197    5.4391    0.5193 C.3     1  UNL1        0.0000
     47 C          -2.3292    5.1991    1.5530 C.3     1  UNL1        0.0000
     48 C          -1.5978    5.1100    2.9186 C.3     1  UNL1        0.0000
     49 C          -0.0984    4.8998    2.5881 C.3     1  UNL1        0.0000
     50 C           2.3539    4.0529    0.8276 C.2     1  UNL1        0.0000
     51 C           3.4176    4.2919   -0.1775 C.ar    1  UNL1        0.0000
     52 C           4.6828    3.7346   -0.2953 C.ar    1  UNL1        0.0000
     53 C           5.4503    4.1306   -1.3976 C.ar    1  UNL1        0.0000
     54 C           4.9586    5.0487   -2.3344 C.ar    1  UNL1        0.0000
     55 C           3.6763    5.5972   -2.2061 C.ar    1  UNL1        0.0000
     56 C           2.9213    5.1968   -1.1148 C.ar    1  UNL1        0.0000
     57 C           1.5209    5.5525   -0.7427 C.2     1  UNL1        0.0000
     58 C          -4.3624    1.3012   -1.4926 C.3     1  UNL1        0.0000
     59 C          -4.3491    1.2066   -3.0343 C.3     1  UNL1        0.0000
     60 C          -3.8136    2.5740   -3.5306 C.3     1  UNL1        0.0000
     61 C          -3.7880    3.5015   -2.2867 C.3     1  UNL1        0.0000
     62 C          -4.6740    2.7992   -1.2479 C.3     1  UNL1        0.0000
     63 C          -5.0275   -1.0209   -0.9440 C.2     1  UNL1        0.0000
     64 C          -5.9976   -1.6950   -0.0462 C.ar    1  UNL1        0.0000
     65 C          -6.1897   -3.0419    0.2214 C.ar    1  UNL1        0.0000
     66 C          -7.1818   -3.3744    1.1517 C.ar    1  UNL1        0.0000
     67 C          -7.9452   -2.3825    1.7803 C.ar    1  UNL1        0.0000
     68 C          -7.7421   -1.0253    1.5001 C.ar    1  UNL1        0.0000
     69 C          -6.7571   -0.7075    0.5787 C.ar    1  UNL1        0.0000
     70 C          -6.2979    0.6275    0.0929 C.2     1  UNL1        0.0000
     71 H          -2.3176   -2.9205   -2.3326 H       1  UNL1        0.0000
     72 H          -0.7087   -3.4436   -2.8550 H       1  UNL1        0.0000
     73 H          -1.2801   -5.7735   -2.5291 H       1  UNL1        0.0000
     74 H          -2.8618   -5.1551   -2.9863 H       1  UNL1        0.0000
     75 H          -2.0423   -6.2488   -0.3780 H       1  UNL1        0.0000
     76 H          -3.6463   -5.6639   -0.7849 H       1  UNL1        0.0000
     77 H          -2.1437   -4.3022    1.0862 H       1  UNL1        0.0000
     78 H          -3.1459   -3.4214   -0.0665 H       1  UNL1        0.0000
     79 H           3.7573   -5.8036   -1.7568 H       1  UNL1        0.0000
     80 H           5.2840   -6.5606    0.0845 H       1  UNL1        0.0000
     81 H           4.6159   -6.3225    2.4440 H       1  UNL1        0.0000
     82 H           2.3928   -5.3185    3.0439 H       1  UNL1        0.0000
     83 H           4.1516    1.3985    2.3296 H       1  UNL1        0.0000
     84 H           2.7336    1.1002    3.3251 H       1  UNL1        0.0000
     85 H           4.6234    0.4162    4.7694 H       1  UNL1        0.0000
     86 H           5.3266   -0.5224    3.4452 H       1  UNL1        0.0000
     87 H           3.9363   -2.1997    4.6532 H       1  UNL1        0.0000
     88 H           2.6346   -1.0203    4.8298 H       1  UNL1        0.0000
     89 H           1.8333   -2.0632    2.8292 H       1  UNL1        0.0000
     90 H           3.4511   -2.5367    2.3375 H       1  UNL1        0.0000
     91 H           7.1012    0.2462   -1.7794 H       1  UNL1        0.0000
     92 H          -1.4902    5.1693   -0.5019 H       1  UNL1        0.0000
     93 H          -0.9133    6.4871    0.5092 H       1  UNL1        0.0000
     94 H          -3.0833    5.9897    1.5239 H       1  UNL1        0.0000
     95 H          -2.8415    4.2555    1.3414 H       1  UNL1        0.0000
     96 H          -1.7352    6.0251    3.5018 H       1  UNL1        0.0000
     97 H          -1.9872    4.2819    3.5138 H       1  UNL1        0.0000
     98 H           0.4719    5.8195    2.7491 H       1  UNL1        0.0000
     99 H           0.3687    4.1071    3.1692 H       1  UNL1        0.0000
    100 H           5.0537    3.0076    0.4180 H       1  UNL1        0.0000
    101 H           6.4430    3.7123   -1.5307 H       1  UNL1        0.0000
    102 H           5.5798    5.3319   -3.1784 H       1  UNL1        0.0000
    103 H           3.2767    6.2977   -2.9312 H       1  UNL1        0.0000
    104 H          -5.3839    1.0513   -3.3545 H       1  UNL1        0.0000
    105 H          -3.7581    0.3587   -3.3756 H       1  UNL1        0.0000
    106 H          -2.8150    2.4717   -3.9592 H       1  UNL1        0.0000
    107 H          -4.4655    2.9775   -4.3107 H       1  UNL1        0.0000
    108 H          -4.1445    4.5121   -2.5013 H       1  UNL1        0.0000
    109 H          -2.7649    3.5919   -1.9098 H       1  UNL1        0.0000
    110 H          -4.4906    3.1055   -0.2174 H       1  UNL1        0.0000
    111 H          -5.7316    2.9696   -1.4575 H       1  UNL1        0.0000
    112 H          -8.3226   -0.2472    1.9835 H       1  UNL1        0.0000
    113 O          -6.6996    1.7159    0.4443 O.2     1  UNL1        0.0000
    114 O          -4.1338   -1.5166   -1.6061 O.2     1  UNL1        0.0000
    115 O           0.7564    6.2678   -1.3552 O.2     1  UNL1        0.0000
    116 O           2.3517    3.2774    1.7647 O.2     1  UNL1        0.0000
    117 O           5.6765    0.7726    0.7736 O.2     1  UNL1        0.0000
    118 O           2.3822   -2.3399   -0.0502 O.2     1  UNL1        0.0000
    119 O          -0.0690   -4.0198    2.0005 O.2     1  UNL1        0.0000
    120 O           1.2199   -4.4682   -2.4229 O.2     1  UNL1        0.0000
    121 H           3.5029   -3.1288   -2.7312 H       1  UNL1        0.0000
    122 H           5.3444   -2.7109   -4.3934 H       1  UNL1        0.0000
    123 H           7.1064   -1.0575   -3.9228 H       1  UNL1        0.0000
    124 H          -5.5899   -3.8005   -0.2697 H       1  UNL1        0.0000
    125 H          -7.3618   -4.4169    1.3933 H       1  UNL1        0.0000
    126 H          -8.7046   -2.6731    2.4992 H       1  UNL1        0.0000
@<TRIPOS>BOND
     1     1    12    1
     2     1     9    1
     3     2    11    1
     4     2    10    1
     5     2     1    1
     6     3     7    1
     7     4    14    1
     8     5    45    1
     9     5    12    1
    10     6    32    1
    11     6     9    1
    12     7     1    1
    13     8     2    1
    14     8     3    1
    15    10     6    1
    16    11     5    1
    17    13     4    1
    18    13     2    1
    19    14     1    1
    20    15    31   am
    21    16    32    1
    22    17    50   am
    23    17    45    1
    24    18    70   am
    25    19    15    1
    26    19     3    1
    27    19    23    1
    28    20    19    1
    29    21    20    1
    30    21    22    1
    31    22    76    1
    32    22    75    1
    33    22    23    1
    34    23    77    1
    35    24    25    1
    36    24    15   am
    37    25    30   ar
    38    26    25   ar
    39    26    27   ar
    40    27    28   ar
    41    28    29   ar
    42    28    81    1
    43    29    82    1
    44    30    31    1
    45    30    29   ar
    46    31   119    2
    47    32    36    1
    48    32    33    1
    49    33    84    1
    50    33    34    1
    51    34    35    1
    52    34    85    1
    53    35    87    1
    54    35    88    1
    55    36    89    1
    56    36    35    1
    57    37   118    2
    58    37    16   am
    59    38    43   ar
    60    38    37    1
    61    39    38   ar
    62    40    41   ar
    63    40    39   ar
    64    41    42   ar
    65    42    91    1
    66    42    43   ar
    67    43    44    1
    68    44    16   am
    69    44   117    2
    70    45    49    1
    71    46    45    1
    72    46    47    1
    73    47    48    1
    74    48    96    1
    75    48    97    1
    76    49    98    1
    77    49    48    1
    78    49    99    1
    79    50   116    2
    80    51    50    1
    81    52    51   ar
    82    52   100    1
    83    53    52   ar
    84    54    55   ar
    85    54    53   ar
    86    55    56   ar
    87    56    57    1
    88    56    51   ar
    89    57    17   am
    90    58    62    1
    91    58     4    1
    92    58    18    1
    93    59    58    1
    94    60    59    1
    95    60    61    1
    96    61   109    1
    97    61    62    1
    98    62   110    1
    99    63    18   am
   100    63    64    1
   101    64    65   ar
   102    64    69   ar
   103    65    66   ar
   104    66   125    1
   105    66    67   ar
   106    67   126    1
   107    68    67   ar
   108    68   112    1
   109    69    68   ar
   110    70   113    2
   111    70    69    1
   112    71    20    1
   113    72    20    1
   114    73    21    1
   115    74    21    1
   116    78    23    1
   117    79    26    1
   118    80    27    1
   119    83    33    1
   120    86    34    1
   121    90    36    1
   122    92    46    1
   123    93    46    1
   124    94    47    1
   125    95    47    1
   126   101    53    1
   127   102    54    1
   128   103    55    1
   129   104    59    1
   130   105    59    1
   131   106    60    1
   132   107    60    1
   133   108    61    1
   134   111    62    1
   135   114    63    2
   136   115    57    2
   137   120    24    2
   138   121    39    1
   139   122    40    1
   140   123    41    1
   141   124    65    1
