@<TRIPOS>MOLECULE
RhRh_PhPhtol-O2C4_10_sp
 162 177 0 0 0
SMALL
GASTEIGER

@<TRIPOS>ATOM
      1 Rh         -0.0611    0.0193    1.2259 Rh      1  UNL1        0.0000
      2 Rh         -0.0849    0.0332   -1.1521 Rh      1  UNL1        0.0000
      3 C          -1.9022    1.9119    0.0911 C.3     1  UNL1        0.0000
      4 C          -2.0033   -1.7622    0.0135 C.3     1  UNL1        0.0000
      5 C           1.7874   -1.8296    0.0301 C.3     1  UNL1        0.0000
      6 C           1.9262    1.7280    0.0001 C.3     1  UNL1        0.0000
      7 O          -1.4226   -1.5426    1.1217 O.3     1  UNL1        0.0000
      8 O          -1.7199   -1.1787   -1.0774 O.3     1  UNL1        0.0000
      9 O           1.5175   -1.2807    1.1420 O.3     1  UNL1        0.0000
     10 O           1.1814   -1.5948   -1.0623 O.3     1  UNL1        0.0000
     11 O           1.3240    1.5508    1.1056 O.3     1  UNL1        0.0000
     12 O           1.5764    1.2177   -1.1077 O.3     1  UNL1        0.0000
     13 O          -1.6217    1.3383    1.1906 O.3     1  UNL1        0.0000
     14 O          -1.3511    1.6578   -1.0243 O.3     1  UNL1        0.0000
     15 C          -3.1341   -2.8338   -0.0599 C.3     1  UNL1        0.0000
     16 C          -4.3985   -2.0763   -0.5639 C.ar    1  UNL1        0.0000
     17 C          -4.3802   -1.4845   -1.8371 C.ar    1  UNL1        0.0000
     18 C          -5.4840   -0.7866   -2.3198 C.ar    1  UNL1        0.0000
     19 C          -6.6463   -0.6871   -1.5538 C.ar    1  UNL1        0.0000
     20 C          -6.6914   -1.3066   -0.3080 C.ar    1  UNL1        0.0000
     21 C          -5.5778   -1.9914    0.1825 C.ar    1  UNL1        0.0000
     22 C          -2.7070   -3.9100   -1.0933 C.ar    1  UNL1        0.0000
     23 C          -1.3605   -4.0171   -1.4662 C.ar    1  UNL1        0.0000
     24 C          -0.9080   -4.9962   -2.3463 C.ar    1  UNL1        0.0000
     25 C          -1.8145   -5.9058   -2.8791 C.ar    1  UNL1        0.0000
     26 C          -3.1538   -5.8223   -2.5076 C.ar    1  UNL1        0.0000
     27 C          -3.6285   -4.8466   -1.6200 C.ar    1  UNL1        0.0000
     28 C          -3.3174   -3.4382    1.3437 C.ar    1  UNL1        0.0000
     29 C          -3.6093   -2.6016    2.4346 C.ar    1  UNL1        0.0000
     30 C          -3.7654   -3.1213    3.7155 C.ar    1  UNL1        0.0000
     31 C          -3.6261   -4.4928    3.9412 C.ar    1  UNL1        0.0000
     32 C          -3.3290   -5.3312    2.8710 C.ar    1  UNL1        0.0000
     33 C          -3.1731   -4.8068    1.5846 C.ar    1  UNL1        0.0000
     34 C           2.9232   -2.8933    0.0166 C.3     1  UNL1        0.0000
     35 C           3.3002   -3.0949   -1.4633 C.ar    1  UNL1        0.0000
     36 C           3.7484   -1.9985   -2.2183 C.ar    1  UNL1        0.0000
     37 C           4.0420   -2.1332   -3.5712 C.ar    1  UNL1        0.0000
     38 C           3.8768   -3.3646   -4.2088 C.ar    1  UNL1        0.0000
     39 C           3.4081   -4.4524   -3.4772 C.ar    1  UNL1        0.0000
     40 C           3.1177   -4.3159   -2.1174 C.ar    1  UNL1        0.0000
     41 C           2.3796   -4.1887    0.6700 C.ar    1  UNL1        0.0000
     42 C           3.2358   -5.2870    0.9302 C.ar    1  UNL1        0.0000
     43 C           2.6837   -6.4412    1.4989 C.ar    1  UNL1        0.0000
     44 C           1.3340   -6.5342    1.8317 C.ar    1  UNL1        0.0000
     45 C           0.5007   -5.4477    1.5945 C.ar    1  UNL1        0.0000
     46 C           1.0284   -4.2933    1.0190 C.ar    1  UNL1        0.0000
     47 C           4.0757   -2.3500    0.9053 C.ar    1  UNL1        0.0000
     48 C           5.3215   -1.9629    0.4073 C.ar    1  UNL1        0.0000
     49 C           6.3278   -1.5132    1.2660 C.ar    1  UNL1        0.0000
     50 C           6.1090   -1.4427    2.6380 C.ar    1  UNL1        0.0000
     51 C           4.8709   -1.8397    3.1490 C.ar    1  UNL1        0.0000
     52 C           3.8697   -2.2884    2.2938 C.ar    1  UNL1        0.0000
     53 C           3.1728    2.6601   -0.0208 C.3     1  UNL1        0.0000
     54 C           3.6244    2.8194    1.4422 C.ar    1  UNL1        0.0000
     55 C           3.6437    4.0597    2.0842 C.ar    1  UNL1        0.0000
     56 C           4.0128    4.1666    3.4276 C.ar    1  UNL1        0.0000
     57 C           4.3597    3.0309    4.1540 C.ar    1  UNL1        0.0000
     58 C           4.3228    1.7824    3.5290 C.ar    1  UNL1        0.0000
     59 C           3.9511    1.6776    2.1929 C.ar    1  UNL1        0.0000
     60 C           4.2295    1.9909   -0.9431 C.ar    1  UNL1        0.0000
     61 C           5.4306    1.4512   -0.4789 C.ar    1  UNL1        0.0000
     62 C           6.3584    0.8999   -1.3667 C.ar    1  UNL1        0.0000
     63 C           6.1043    0.8782   -2.7341 C.ar    1  UNL1        0.0000
     64 C           4.9089    1.4222   -3.2109 C.ar    1  UNL1        0.0000
     65 C           3.9857    1.9705   -2.3267 C.ar    1  UNL1        0.0000
     66 C           2.7518    4.0069   -0.6599 C.ar    1  UNL1        0.0000
     67 C           3.7110    4.9950   -0.9931 C.ar    1  UNL1        0.0000
     68 C           3.2590    6.2004   -1.5434 C.ar    1  UNL1        0.0000
     69 C           1.9082    6.4533   -1.7757 C.ar    1  UNL1        0.0000
     70 C           0.9717    5.4796   -1.4524 C.ar    1  UNL1        0.0000
     71 C           1.4012    4.2719   -0.9057 C.ar    1  UNL1        0.0000
     72 C          -2.9777    3.0342    0.1519 C.3     1  UNL1        0.0000
     73 C          -3.5847    3.1521   -1.2631 C.ar    1  UNL1        0.0000
     74 C          -2.7908    3.6755   -2.2950 C.ar    1  UNL1        0.0000
     75 C          -3.2844    3.7924   -3.5898 C.ar    1  UNL1        0.0000
     76 C          -4.5883    3.3845   -3.8844 C.ar    1  UNL1        0.0000
     77 C          -5.3827    2.8621   -2.8680 C.ar    1  UNL1        0.0000
     78 C          -4.8845    2.7460   -1.5679 C.ar    1  UNL1        0.0000
     79 C          -4.0026    2.6135    1.2256 C.ar    1  UNL1        0.0000
     80 C          -4.3732    3.4649    2.2687 C.ar    1  UNL1        0.0000
     81 C          -5.2877    3.0532    3.2410 C.ar    1  UNL1        0.0000
     82 C          -5.8385    1.7764    3.1917 C.ar    1  UNL1        0.0000
     83 C          -5.4708    0.9136    2.1573 C.ar    1  UNL1        0.0000
     84 C          -4.5649    1.3272    1.1853 C.ar    1  UNL1        0.0000
     85 C          -2.2583    4.3490    0.5670 C.ar    1  UNL1        0.0000
     86 C          -2.8411    5.6217    0.3433 C.ar    1  UNL1        0.0000
     87 C          -2.1398    6.7581    0.7706 C.ar    1  UNL1        0.0000
     88 C          -0.9114    6.6784    1.4218 C.ar    1  UNL1        0.0000
     89 C          -0.3652    5.4274    1.6785 C.ar    1  UNL1        0.0000
     90 C          -1.0405    4.2842    1.2581 C.ar    1  UNL1        0.0000
     91 C          -5.0989   -4.8818   -1.2714 C.3     1  UNL1        0.0000
     92 C           4.7218   -5.2818    0.6541 C.3     1  UNL1        0.0000
     93 C           5.2005    4.8229   -0.8028 C.3     1  UNL1        0.0000
     94 C          -4.2010    5.8438   -0.2821 C.3     1  UNL1        0.0000
     95 H          -3.4924   -1.5662   -2.4479 H       1  UNL1        0.0000
     96 H          -5.4301   -0.3147   -3.2952 H       1  UNL1        0.0000
     97 H          -7.5073   -0.1424   -1.9287 H       1  UNL1        0.0000
     98 H          -7.5933   -1.2576    0.2945 H       1  UNL1        0.0000
     99 H          -5.6437   -2.4759    1.1476 H       1  UNL1        0.0000
    100 H          -0.6282   -3.3207   -1.0873 H       1  UNL1        0.0000
    101 H           0.1458   -5.0310   -2.6039 H       1  UNL1        0.0000
    102 H          -1.4877   -6.6772   -3.5697 H       1  UNL1        0.0000
    103 H          -3.8648   -6.5389   -2.9095 H       1  UNL1        0.0000
    104 H          -3.7040   -1.5327    2.2845 H       1  UNL1        0.0000
    105 H          -3.9897   -2.4508    4.5395 H       1  UNL1        0.0000
    106 H          -3.7454   -4.8987    4.9410 H       1  UNL1        0.0000
    107 H          -3.2135   -6.3994    3.0283 H       1  UNL1        0.0000
    108 H          -2.9303   -5.4736    0.7668 H       1  UNL1        0.0000
    109 H           3.8446   -1.0211   -1.7589 H       1  UNL1        0.0000
    110 H           4.3899   -1.2672   -4.1238 H       1  UNL1        0.0000
    111 H           4.1025   -3.4697   -5.2656 H       1  UNL1        0.0000
    112 H           3.2613   -5.4141   -3.9597 H       1  UNL1        0.0000
    113 H           2.7397   -5.1692   -1.5680 H       1  UNL1        0.0000
    114 H           3.3408   -7.2855    1.6885 H       1  UNL1        0.0000
    115 H           0.9442   -7.4454    2.2751 H       1  UNL1        0.0000
    116 H          -0.5516   -5.4781    1.8537 H       1  UNL1        0.0000
    117 H           0.3564   -3.4598    0.8712 H       1  UNL1        0.0000
    118 H           5.5290   -2.0214   -0.6519 H       1  UNL1        0.0000
    119 H           7.2885   -1.2246    0.8512 H       1  UNL1        0.0000
    120 H           6.8923   -1.0931    3.3035 H       1  UNL1        0.0000
    121 H           4.6851   -1.8092    4.2185 H       1  UNL1        0.0000
    122 H           2.9207   -2.6073    2.7035 H       1  UNL1        0.0000
    123 H           3.3627    4.9521    1.5385 H       1  UNL1        0.0000
    124 H           4.0228    5.1434    3.9018 H       1  UNL1        0.0000
    125 H           4.6467    3.1131    5.1979 H       1  UNL1        0.0000
    126 H           4.5744    0.8817    4.0786 H       1  UNL1        0.0000
    127 H           3.8928    0.6924    1.7436 H       1  UNL1        0.0000
    128 H           5.6670    1.4675    0.5757 H       1  UNL1        0.0000
    129 H           7.2862    0.4929   -0.9775 H       1  UNL1        0.0000
    130 H           6.8273    0.4510   -3.4220 H       1  UNL1        0.0000
    131 H           4.6966    1.4278   -4.2758 H       1  UNL1        0.0000
    132 H           3.0709    2.4025   -2.7099 H       1  UNL1        0.0000
    133 H           3.9953    6.9598   -1.7925 H       1  UNL1        0.0000
    134 H           1.5966    7.4039   -2.1976 H       1  UNL1        0.0000
    135 H          -0.0897    5.6560   -1.5921 H       1  UNL1        0.0000
    136 H           0.6489    3.5343   -0.6672 H       1  UNL1        0.0000
    137 H          -1.7790    3.9954   -2.0783 H       1  UNL1        0.0000
    138 H          -2.6513    4.2047   -4.3697 H       1  UNL1        0.0000
    139 H          -4.9771    3.4779   -4.8938 H       1  UNL1        0.0000
    140 H          -6.3997    2.5438   -3.0770 H       1  UNL1        0.0000
    141 H          -5.5258    2.3444   -0.7950 H       1  UNL1        0.0000
    142 H          -3.9343    4.4517    2.3409 H       1  UNL1        0.0000
    143 H          -5.5571    3.7353    4.0418 H       1  UNL1        0.0000
    144 H          -6.5438    1.4517    3.9507 H       1  UNL1        0.0000
    145 H          -5.8876   -0.0848    2.1013 H       1  UNL1        0.0000
    146 H          -4.2927    0.6378    0.3925 H       1  UNL1        0.0000
    147 H          -2.5884    7.7321    0.5953 H       1  UNL1        0.0000
    148 H          -0.3986    7.5836    1.7315 H       1  UNL1        0.0000
    149 H           0.5881    5.3233    2.1864 H       1  UNL1        0.0000
    150 H          -0.5923    3.3266    1.4818 H       1  UNL1        0.0000
    151 H          -5.2712   -4.7754   -0.1987 H       1  UNL1        0.0000
    152 H          -5.6533   -4.0805   -1.7677 H       1  UNL1        0.0000
    153 H          -5.5305   -5.8352   -1.5870 H       1  UNL1        0.0000
    154 H           5.2622   -4.7210    1.4229 H       1  UNL1        0.0000
    155 H           5.1044   -6.3058    0.6534 H       1  UNL1        0.0000
    156 H           4.9692   -4.8288   -0.3065 H       1  UNL1        0.0000
    157 H           5.6315    4.2035   -1.5952 H       1  UNL1        0.0000
    158 H           5.6944    5.7978   -0.8314 H       1  UNL1        0.0000
    159 H           5.4483    4.3471    0.1468 H       1  UNL1        0.0000
    160 H          -4.5655    6.8404   -0.0187 H       1  UNL1        0.0000
    161 H          -4.1700    5.7727   -1.3726 H       1  UNL1        0.0000
    162 H          -4.9358    5.1154    0.0641 H       1  UNL1        0.0000
@<TRIPOS>BOND
     1     2    12    1
     2     2     8    1
     3     2    10    1
     4     2    14    1
     5     2     1    1
     6     3    72    1
     7     3    13    1
     8     4     7    1
     9     5     9    1
    10     6    11    1
    11     7     1    1
    12     8     4    1
    13     9     1    1
    14    10     5    1
    15    11     1    1
    16    12     6    1
    17    13     1    1
    18    14     3    1
    19    15     4    1
    20    15    28    1
    21    16    15    1
    22    16    21   ar
    23    17    16   ar
    24    18    17   ar
    25    18    19   ar
    26    19    20   ar
    27    20    21   ar
    28    20    98    1
    29    21    99    1
    30    22    15    1
    31    23    22   ar
    32    23   100    1
    33    24    23   ar
    34    25    26   ar
    35    25    24   ar
    36    26    27   ar
    37    27    91    1
    38    27    22   ar
    39    28    33   ar
    40    28    29   ar
    41    29    30   ar
    42    30    31   ar
    43    30   105    1
    44    31   106    1
    45    32   107    1
    46    32    31   ar
    47    33    32   ar
    48    34     5    1
    49    34    41    1
    50    34    47    1
    51    35    34    1
    52    36   109    1
    53    36    35   ar
    54    37    36   ar
    55    38    37   ar
    56    38    39   ar
    57    39    40   ar
    58    40   113    1
    59    40    35   ar
    60    41    42   ar
    61    41    46   ar
    62    42    43   ar
    63    43   114    1
    64    43    44   ar
    65    44   115    1
    66    45    44   ar
    67    45   116    1
    68    46    45   ar
    69    47    52   ar
    70    48    47   ar
    71    48    49   ar
    72    49    50   ar
    73    50    51   ar
    74    50   120    1
    75    51   121    1
    76    52   122    1
    77    52    51   ar
    78    53     6    1
    79    53    54    1
    80    54    55   ar
    81    54    59   ar
    82    55    56   ar
    83    56   124    1
    84    56    57   ar
    85    57   125    1
    86    58   126    1
    87    58    57   ar
    88    59    58   ar
    89    60    61   ar
    90    60    53    1
    91    61   128    1
    92    62   129    1
    93    62    61   ar
    94    63    62   ar
    95    64    63   ar
    96    64    65   ar
    97    65    60   ar
    98    66    53    1
    99    67    93    1
   100    67    66   ar
   101    68    67   ar
   102    69    68   ar
   103    69    70   ar
   104    70    71   ar
   105    71   136    1
   106    71    66   ar
   107    72    85    1
   108    72    79    1
   109    73    72    1
   110    74   137    1
   111    74    73   ar
   112    75    74   ar
   113    76    75   ar
   114    76    77   ar
   115    77    78   ar
   116    78    73   ar
   117    78   141    1
   118    79    80   ar
   119    80   142    1
   120    80    81   ar
   121    81   143    1
   122    82    81   ar
   123    82   144    1
   124    83    82   ar
   125    84    79   ar
   126    84    83   ar
   127    85    90   ar
   128    86    85   ar
   129    86    87   ar
   130    87    88   ar
   131    88    89   ar
   132    88   148    1
   133    89   149    1
   134    90   150    1
   135    90    89   ar
   136    91   151    1
   137    92    42    1
   138    92   154    1
   139    93   159    1
   140    94   160    1
   141    94   162    1
   142    94    86    1
   143    95    17    1
   144    96    18    1
   145    97    19    1
   146   101    24    1
   147   102    25    1
   148   103    26    1
   149   104    29    1
   150   108    33    1
   151   110    37    1
   152   111    38    1
   153   112    39    1
   154   117    46    1
   155   118    48    1
   156   119    49    1
   157   123    55    1
   158   127    59    1
   159   130    63    1
   160   131    64    1
   161   132    65    1
   162   133    68    1
   163   134    69    1
   164   135    70    1
   165   138    75    1
   166   139    76    1
   167   140    77    1
   168   145    83    1
   169   146    84    1
   170   147    87    1
   171   152    91    1
   172   153    91    1
   173   155    92    1
   174   156    92    1
   175   157    93    1
   176   158    93    1
   177   161    94    1
