@<TRIPOS>MOLECULE
RhRh_PhPhtol-O2C4_30_sp
 162 177 0 0 0
SMALL
GASTEIGER

@<TRIPOS>ATOM
      1 Rh          0.0430    0.0333   -1.2038 Rh      1  UNL1        0.0000
      2 Rh         -0.0270    0.0796    1.1697 Rh      1  UNL1        0.0000
      3 C          -1.6165    2.1243   -0.1016 C.3     1  UNL1        0.0000
      4 C           2.1467    1.5824    0.0365 C.3     1  UNL1        0.0000
      5 C           1.5913   -2.0477    0.0419 C.3     1  UNL1        0.0000
      6 C          -2.1375   -1.4815   -0.0412 C.3     1  UNL1        0.0000
      7 O           1.5780    1.3991   -1.0836 O.3     1  UNL1        0.0000
      8 O           1.7468    1.1003    1.1438 O.3     1  UNL1        0.0000
      9 O           1.4237   -1.4570   -1.0710 O.3     1  UNL1        0.0000
     10 O           1.0345   -1.7052    1.1298 O.3     1  UNL1        0.0000
     11 O          -1.4734   -1.3747   -1.1214 O.3     1  UNL1        0.0000
     12 O          -1.8300   -0.9050    1.0503 O.3     1  UNL1        0.0000
     13 O          -1.3706    1.5233   -1.1951 O.3     1  UNL1        0.0000
     14 O          -1.0651    1.8525    1.0099 O.3     1  UNL1        0.0000
     15 C           3.4080    2.4947    0.0873 C.3     1  UNL1        0.0000
     16 C           4.0954    2.4096   -1.2931 C.ar    1  UNL1        0.0000
     17 C           5.3430    1.8158   -1.4845 C.ar    1  UNL1        0.0000
     18 C           5.9364    1.7917   -2.7489 C.ar    1  UNL1        0.0000
     19 C           5.2876    2.3540   -3.8441 C.ar    1  UNL1        0.0000
     20 C           4.0348    2.9472   -3.6640 C.ar    1  UNL1        0.0000
     21 C           3.4489    2.9757   -2.4031 C.ar    1  UNL1        0.0000
     22 C           2.9279    3.9458    0.3624 C.ar    1  UNL1        0.0000
     23 C           1.6742    4.1597    0.9507 C.ar    1  UNL1        0.0000
     24 C           1.2006    5.4384    1.2380 C.ar    1  UNL1        0.0000
     25 C           1.9908    6.5424    0.9425 C.ar    1  UNL1        0.0000
     26 C           3.2551    6.3432    0.3946 C.ar    1  UNL1        0.0000
     27 C           3.7567    5.0668    0.1061 C.ar    1  UNL1        0.0000
     28 C           4.2850    1.9789    1.2459 C.ar    1  UNL1        0.0000
     29 C           4.6259    0.6183    1.3038 C.ar    1  UNL1        0.0000
     30 C           5.3824    0.1161    2.3579 C.ar    1  UNL1        0.0000
     31 C           5.8207    0.9638    3.3775 C.ar    1  UNL1        0.0000
     32 C           5.4902    2.3147    3.3288 C.ar    1  UNL1        0.0000
     33 C           4.7229    2.8157    2.2743 C.ar    1  UNL1        0.0000
     34 C           2.5638   -3.2694    0.0164 C.3     1  UNL1        0.0000
     35 C           3.9479   -2.6847   -0.3992 C.ar    1  UNL1        0.0000
     36 C           4.0894   -2.0955   -1.6657 C.ar    1  UNL1        0.0000
     37 C           5.3169   -1.5960   -2.0904 C.ar    1  UNL1        0.0000
     38 C           6.4396   -1.6877   -1.2663 C.ar    1  UNL1        0.0000
     39 C           6.3168   -2.2911   -0.0181 C.ar    1  UNL1        0.0000
     40 C           5.0825   -2.7826    0.4117 C.ar    1  UNL1        0.0000
     41 C           2.0654   -4.2563   -1.0726 C.ar    1  UNL1        0.0000
     42 C           2.9073   -5.2456   -1.6367 C.ar    1  UNL1        0.0000
     43 C           2.3773   -6.0882   -2.6237 C.ar    1  UNL1        0.0000
     44 C           1.0591   -5.9890   -3.0584 C.ar    1  UNL1        0.0000
     45 C           0.2245   -5.0454   -2.4705 C.ar    1  UNL1        0.0000
     46 C           0.7265   -4.2046   -1.4813 C.ar    1  UNL1        0.0000
     47 C           2.6029   -3.9238    1.4067 C.ar    1  UNL1        0.0000
     48 C           2.9056   -3.1543    2.5433 C.ar    1  UNL1        0.0000
     49 C           2.9559   -3.7332    3.8076 C.ar    1  UNL1        0.0000
     50 C           2.7092   -5.0991    3.9681 C.ar    1  UNL1        0.0000
     51 C           2.4128   -5.8726    2.8494 C.ar    1  UNL1        0.0000
     52 C           2.3549   -5.2871    1.5819 C.ar    1  UNL1        0.0000
     53 C          -3.3238   -2.4811    0.0430 C.3     1  UNL1        0.0000
     54 C          -2.5742   -3.8160    0.3113 C.ar    1  UNL1        0.0000
     55 C          -2.7275   -4.9331   -0.5162 C.ar    1  UNL1        0.0000
     56 C          -2.0345   -6.1159   -0.2537 C.ar    1  UNL1        0.0000
     57 C          -1.1607   -6.1982    0.8274 C.ar    1  UNL1        0.0000
     58 C          -0.9769   -5.0825    1.6429 C.ar    1  UNL1        0.0000
     59 C          -1.6695   -3.9034    1.3827 C.ar    1  UNL1        0.0000
     60 C          -4.2141   -2.0080    1.2197 C.ar    1  UNL1        0.0000
     61 C          -4.2974   -2.6536    2.4537 C.ar    1  UNL1        0.0000
     62 C          -5.1500   -2.1733    3.4499 C.ar    1  UNL1        0.0000
     63 C          -5.9338   -1.0426    3.2267 C.ar    1  UNL1        0.0000
     64 C          -5.8571   -0.3923    1.9939 C.ar    1  UNL1        0.0000
     65 C          -5.0038   -0.8720    1.0048 C.ar    1  UNL1        0.0000
     66 C          -4.2206   -2.5532   -1.2195 C.ar    1  UNL1        0.0000
     67 C          -5.4144   -3.3233   -1.1938 C.ar    1  UNL1        0.0000
     68 C          -6.2236   -3.3509   -2.3364 C.ar    1  UNL1        0.0000
     69 C          -5.9089   -2.6416   -3.4920 C.ar    1  UNL1        0.0000
     70 C          -4.7443   -1.8847   -3.5145 C.ar    1  UNL1        0.0000
     71 C          -3.9181   -1.8474   -2.3912 C.ar    1  UNL1        0.0000
     72 C          -2.6362    3.2913   -0.1651 C.3     1  UNL1        0.0000
     73 C          -2.1640    4.2065   -1.3190 C.ar    1  UNL1        0.0000
     74 C          -3.0743    4.8929   -2.1257 C.ar    1  UNL1        0.0000
     75 C          -2.6249    5.7793   -3.1070 C.ar    1  UNL1        0.0000
     76 C          -1.2605    5.9948   -3.2927 C.ar    1  UNL1        0.0000
     77 C          -0.3441    5.3144   -2.4887 C.ar    1  UNL1        0.0000
     78 C          -0.7946    4.4275   -1.5158 C.ar    1  UNL1        0.0000
     79 C          -4.0478    2.7355   -0.5007 C.ar    1  UNL1        0.0000
     80 C          -4.2398    1.7639   -1.4934 C.ar    1  UNL1        0.0000
     81 C          -5.5208    1.3230   -1.8255 C.ar    1  UNL1        0.0000
     82 C          -6.6393    1.8511   -1.1812 C.ar    1  UNL1        0.0000
     83 C          -6.4621    2.8359   -0.2110 C.ar    1  UNL1        0.0000
     84 C          -5.1806    3.2757    0.1217 C.ar    1  UNL1        0.0000
     85 C          -2.6492    4.0536    1.1828 C.ar    1  UNL1        0.0000
     86 C          -2.9942    3.4246    2.4038 C.ar    1  UNL1        0.0000
     87 C          -2.9929    4.1939    3.5750 C.ar    1  UNL1        0.0000
     88 C          -2.6804    5.5497    3.5768 C.ar    1  UNL1        0.0000
     89 C          -2.3717    6.1722    2.3717 C.ar    1  UNL1        0.0000
     90 C          -2.3590    5.4243    1.1955 C.ar    1  UNL1        0.0000
     91 C           5.1739    4.9852   -0.4170 C.3     1  UNL1        0.0000
     92 C           4.3450   -5.4827   -1.2314 C.3     1  UNL1        0.0000
     93 C          -5.9028   -4.1116    0.0011 C.3     1  UNL1        0.0000
     94 C          -3.3952    1.9753    2.5549 C.3     1  UNL1        0.0000
     95 H           5.8718    1.3791   -0.6480 H       1  UNL1        0.0000
     96 H           6.9130    1.3320   -2.8685 H       1  UNL1        0.0000
     97 H           5.7505    2.3379   -4.8261 H       1  UNL1        0.0000
     98 H           3.5161    3.3949   -4.5063 H       1  UNL1        0.0000
     99 H           2.4834    3.4488   -2.2726 H       1  UNL1        0.0000
    100 H           1.0415    3.3201    1.2068 H       1  UNL1        0.0000
    101 H           0.2204    5.5546    1.6847 H       1  UNL1        0.0000
    102 H           1.6389    7.5481    1.1515 H       1  UNL1        0.0000
    103 H           3.8911    7.2009    0.1929 H       1  UNL1        0.0000
    104 H           4.2931   -0.0591    0.5247 H       1  UNL1        0.0000
    105 H           5.6262   -0.9395    2.3787 H       1  UNL1        0.0000
    106 H           6.4097    0.5710    4.2007 H       1  UNL1        0.0000
    107 H           5.8174    2.9871    4.1161 H       1  UNL1        0.0000
    108 H           4.4516    3.8637    2.2694 H       1  UNL1        0.0000
    109 H           3.2321   -2.0326   -2.3207 H       1  UNL1        0.0000
    110 H           5.3915   -1.1261   -3.0650 H       1  UNL1        0.0000
    111 H           7.3973   -1.2975   -1.5967 H       1  UNL1        0.0000
    112 H           7.1814   -2.3832    0.6320 H       1  UNL1        0.0000
    113 H           5.0185   -3.2663    1.3772 H       1  UNL1        0.0000
    114 H           3.0277   -6.8434   -3.0565 H       1  UNL1        0.0000
    115 H           0.6887   -6.6525   -3.8341 H       1  UNL1        0.0000
    116 H          -0.8162   -4.9592   -2.7611 H       1  UNL1        0.0000
    117 H           0.0435   -3.4956   -1.0345 H       1  UNL1        0.0000
    118 H           3.1012   -2.0939    2.4395 H       1  UNL1        0.0000
    119 H           3.1892   -3.1149    4.6691 H       1  UNL1        0.0000
    120 H           2.7502   -5.5512    4.9543 H       1  UNL1        0.0000
    121 H           2.2175   -6.9356    2.9553 H       1  UNL1        0.0000
    122 H           2.0962   -5.8981    0.7268 H       1  UNL1        0.0000
    123 H          -3.3903   -4.8823   -1.3709 H       1  UNL1        0.0000
    124 H          -2.1693   -6.9681   -0.9122 H       1  UNL1        0.0000
    125 H          -0.6128   -7.1148    1.0220 H       1  UNL1        0.0000
    126 H          -0.2798   -5.1180    2.4717 H       1  UNL1        0.0000
    127 H          -1.4959   -3.0406    2.0125 H       1  UNL1        0.0000
    128 H          -3.7183   -3.5486    2.6413 H       1  UNL1        0.0000
    129 H          -5.2052   -2.6959    4.4003 H       1  UNL1        0.0000
    130 H          -6.5996   -0.6751    4.0016 H       1  UNL1        0.0000
    131 H          -6.4541    0.4914    1.7933 H       1  UNL1        0.0000
    132 H          -4.9623   -0.3620    0.0507 H       1  UNL1        0.0000
    133 H          -7.1306   -3.9483   -2.3074 H       1  UNL1        0.0000
    134 H          -6.5626   -2.6872   -4.3577 H       1  UNL1        0.0000
    135 H          -4.4652   -1.3207   -4.3994 H       1  UNL1        0.0000
    136 H          -3.0179   -1.2575   -2.4374 H       1  UNL1        0.0000
    137 H          -4.1380    4.7403   -1.9881 H       1  UNL1        0.0000
    138 H          -3.3485    6.3019   -3.7254 H       1  UNL1        0.0000
    139 H          -0.9139    6.6862   -4.0547 H       1  UNL1        0.0000
    140 H           0.7229    5.4772   -2.6073 H       1  UNL1        0.0000
    141 H          -0.0659    3.9179   -0.8992 H       1  UNL1        0.0000
    142 H          -3.3842    1.3478   -2.0067 H       1  UNL1        0.0000
    143 H          -5.6369    0.5501   -2.5774 H       1  UNL1        0.0000
    144 H          -7.6348    1.5010   -1.4356 H       1  UNL1        0.0000
    145 H          -7.3210    3.2697    0.2924 H       1  UNL1        0.0000
    146 H          -5.0630    4.0422    0.8770 H       1  UNL1        0.0000
    147 H          -3.2550    3.7039    4.5094 H       1  UNL1        0.0000
    148 H          -2.6915    6.1120    4.5056 H       1  UNL1        0.0000
    149 H          -2.1402    7.2324    2.3372 H       1  UNL1        0.0000
    150 H          -2.1133    5.9229    0.2681 H       1  UNL1        0.0000
    151 H           5.2060    4.8216   -1.4975 H       1  UNL1        0.0000
    152 H           5.6963    5.9212   -0.2017 H       1  UNL1        0.0000
    153 H           5.7363    4.1733    0.0467 H       1  UNL1        0.0000
    154 H           4.4816   -5.4403   -0.1497 H       1  UNL1        0.0000
    155 H           4.6620   -6.4727   -1.5701 H       1  UNL1        0.0000
    156 H           5.0217   -4.7452   -1.6716 H       1  UNL1        0.0000
    157 H          -6.4049   -3.4605    0.7225 H       1  UNL1        0.0000
    158 H          -6.6210   -4.8684   -0.3258 H       1  UNL1        0.0000
    159 H          -5.0990   -4.6203    0.5324 H       1  UNL1        0.0000
    160 H          -3.5688    1.4588    1.6174 H       1  UNL1        0.0000
    161 H          -2.6216    1.4162    3.0895 H       1  UNL1        0.0000
    162 H          -4.3179    1.9006    3.1382 H       1  UNL1        0.0000
@<TRIPOS>BOND
     1     1    13    1
     2     1    11    1
     3     1     7    1
     4     1     9    1
     5     1     2    1
     6     3    14    1
     7     4    15    1
     8     4     8    1
     9     5    10    1
    10     6    53    1
    11     6    12    1
    12     7     4    1
    13     8     2    1
    14     9     5    1
    15    10     2    1
    16    11     6    1
    17    12     2    1
    18    13     3    1
    19    14     2    1
    20    15    22    1
    21    15    28    1
    22    16    15    1
    23    17    16   ar
    24    17    95    1
    25    18    17   ar
    26    19    20   ar
    27    19    18   ar
    28    20    21   ar
    29    21    99    1
    30    21    16   ar
    31    22    23   ar
    32    23   100    1
    33    23    24   ar
    34    24   101    1
    35    25   102    1
    36    25    24   ar
    37    26    25   ar
    38    27    22   ar
    39    27    26   ar
    40    28    29   ar
    41    28    33   ar
    42    29    30   ar
    43    30   105    1
    44    30    31   ar
    45    31   106    1
    46    32    31   ar
    47    32   107    1
    48    33    32   ar
    49    34     5    1
    50    34    47    1
    51    35    34    1
    52    35    40   ar
    53    36    35   ar
    54    37    36   ar
    55    37    38   ar
    56    38    39   ar
    57    39    40   ar
    58    39   112    1
    59    40   113    1
    60    41    34    1
    61    42    92    1
    62    42    41   ar
    63    43    42   ar
    64    44    43   ar
    65    44    45   ar
    66    45    46   ar
    67    46    41   ar
    68    46   117    1
    69    47    52   ar
    70    47    48   ar
    71    48    49   ar
    72    49    50   ar
    73    49   119    1
    74    50   120    1
    75    51   121    1
    76    51    50   ar
    77    52    51   ar
    78    53    54    1
    79    53    60    1
    80    54    59   ar
    81    55    56   ar
    82    55    54   ar
    83    56    57   ar
    84    57   125    1
    85    57    58   ar
    86    58   126    1
    87    59    58   ar
    88    59   127    1
    89    60    61   ar
    90    61   128    1
    91    61    62   ar
    92    62   129    1
    93    63    62   ar
    94    63   130    1
    95    64    63   ar
    96    65    60   ar
    97    65    64   ar
    98    66    67   ar
    99    66    53    1
   100    67    93    1
   101    68   133    1
   102    68    67   ar
   103    69    68   ar
   104    70    69   ar
   105    70    71   ar
   106    71    66   ar
   107    72     3    1
   108    72    85    1
   109    73    72    1
   110    74   137    1
   111    74    73   ar
   112    75    74   ar
   113    76    75   ar
   114    76    77   ar
   115    77    78   ar
   116    78    73   ar
   117    78   141    1
   118    79    72    1
   119    79    84   ar
   120    80    79   ar
   121    81    80   ar
   122    81    82   ar
   123    82    83   ar
   124    83    84   ar
   125    83   145    1
   126    84   146    1
   127    85    90   ar
   128    85    86   ar
   129    86    94    1
   130    86    87   ar
   131    87    88   ar
   132    87   147    1
   133    88   148    1
   134    89    88   ar
   135    90    89   ar
   136    91   152    1
   137    91   153    1
   138    91    27    1
   139    92   154    1
   140    93   159    1
   141    93   157    1
   142    94   161    1
   143    94   162    1
   144    96    18    1
   145    97    19    1
   146    98    20    1
   147   103    26    1
   148   104    29    1
   149   108    33    1
   150   109    36    1
   151   110    37    1
   152   111    38    1
   153   114    43    1
   154   115    44    1
   155   116    45    1
   156   118    48    1
   157   122    52    1
   158   123    55    1
   159   124    56    1
   160   131    64    1
   161   132    65    1
   162   134    69    1
   163   135    70    1
   164   136    71    1
   165   138    75    1
   166   139    76    1
   167   140    77    1
   168   142    80    1
   169   143    81    1
   170   144    82    1
   171   149    89    1
   172   150    90    1
   173   151    91    1
   174   155    92    1
   175   156    92    1
   176   158    93    1
   177   160    94    1
