@<TRIPOS>MOLECULE
RhRh_MeMePh-O2C4_S2_sp
 94 101 0 0 0
SMALL
GASTEIGER

@<TRIPOS>ATOM
      1 Rh          0.2699   -0.2891    1.1268 Rh      1  UNL1        0.0000
      2 Rh         -0.2696    0.2888   -1.1261 Rh      1  UNL1        0.0000
      3 C           2.2458   -1.1131   -0.8242 C.3     1  UNL1        0.0000
      4 C           1.2854    2.2870    0.2729 C.3     1  UNL1        0.0000
      5 C          -2.2456    1.1125    0.8249 C.3     1  UNL1        0.0000
      6 C          -1.2852   -2.2872   -0.2721 C.3     1  UNL1        0.0000
      7 O          -0.7410   -2.0529    0.8524 O.3     1  UNL1        0.0000
      8 O          -1.2485   -1.5185   -1.2861 O.3     1  UNL1        0.0000
      9 O          -1.4892    0.5962    1.7111 O.3     1  UNL1        0.0000
     10 O          -1.9906    1.1588   -0.4183 O.3     1  UNL1        0.0000
     11 O           1.2491    1.5181    1.2867 O.3     1  UNL1        0.0000
     12 O           0.7409    2.0528   -0.8515 O.3     1  UNL1        0.0000
     13 O           1.9907   -1.1596    0.4190 O.3     1  UNL1        0.0000
     14 O           1.4897   -0.5962   -1.7103 O.3     1  UNL1        0.0000
     15 C          -2.0928   -3.5889   -0.3989 C.3     1  UNL1        0.0000
     16 C          -3.5454   -3.2105   -0.0468 C.ar    1  UNL1        0.0000
     17 C          -4.1712   -3.6698    1.1172 C.ar    1  UNL1        0.0000
     18 C          -5.4916   -3.3210    1.4077 C.ar    1  UNL1        0.0000
     19 C          -6.2122   -2.5051    0.5387 C.ar    1  UNL1        0.0000
     20 C          -5.5962   -2.0311   -0.6205 C.ar    1  UNL1        0.0000
     21 C          -4.2752   -2.3722   -0.9040 C.ar    1  UNL1        0.0000
     22 C          -3.5617    1.7184    1.3449 C.3     1  UNL1        0.0000
     23 C          -4.4175    2.2685    0.2027 C.ar    1  UNL1        0.0000
     24 C          -4.8832    3.5860    0.1824 C.ar    1  UNL1        0.0000
     25 C          -5.7104    4.0414   -0.8482 C.ar    1  UNL1        0.0000
     26 C          -6.0857    3.1852   -1.8792 C.ar    1  UNL1        0.0000
     27 C          -5.6241    1.8666   -1.8726 C.ar    1  UNL1        0.0000
     28 C          -4.8027    1.4176   -0.8445 C.ar    1  UNL1        0.0000
     29 C           2.0926    3.5889    0.3997 C.3     1  UNL1        0.0000
     30 C           3.5448    3.2113    0.0453 C.ar    1  UNL1        0.0000
     31 C           4.2760    2.3723    0.9006 C.ar    1  UNL1        0.0000
     32 C           5.5967    2.0318    0.6150 C.ar    1  UNL1        0.0000
     33 C           6.2111    2.5070   -0.5444 C.ar    1  UNL1        0.0000
     34 C           5.4891    3.3237   -1.4117 C.ar    1  UNL1        0.0000
     35 C           4.1690    3.6720   -1.1190 C.ar    1  UNL1        0.0000
     36 C           3.5614   -1.7198   -1.3443 C.3     1  UNL1        0.0000
     37 C           4.4177   -2.2688   -0.2019 C.ar    1  UNL1        0.0000
     38 C           4.8031   -1.4168    0.8444 C.ar    1  UNL1        0.0000
     39 C           5.6250   -1.8647    1.8726 C.ar    1  UNL1        0.0000
     40 C           6.0870   -3.1831    1.8802 C.ar    1  UNL1        0.0000
     41 C           5.7116   -4.0404    0.8501 C.ar    1  UNL1        0.0000
     42 C           4.8839   -3.5861   -0.1806 C.ar    1  UNL1        0.0000
     43 C           1.5027    4.6453   -0.5472 C.3     1  UNL1        0.0000
     44 C           2.0116    4.1184    1.8461 C.3     1  UNL1        0.0000
     45 C           3.1732   -2.7932   -2.3816 C.3     1  UNL1        0.0000
     46 C           4.3352   -0.5872   -2.0683 C.3     1  UNL1        0.0000
     47 C          -2.0101   -4.1195   -1.8448 C.3     1  UNL1        0.0000
     48 C          -1.5046   -4.6448    0.5496 C.3     1  UNL1        0.0000
     49 C          -3.1746    2.7904    2.3840 C.3     1  UNL1        0.0000
     50 C          -4.3354    0.5844    2.0669 C.3     1  UNL1        0.0000
     51 H          -3.6350   -4.3075    1.8086 H       1  UNL1        0.0000
     52 H          -5.9540   -3.6915    2.3176 H       1  UNL1        0.0000
     53 H          -7.2392   -2.2346    0.7628 H       1  UNL1        0.0000
     54 H          -6.1419   -1.3833   -1.2991 H       1  UNL1        0.0000
     55 H          -3.8010   -1.9728   -1.7933 H       1  UNL1        0.0000
     56 H          -4.6078    4.2762    0.9707 H       1  UNL1        0.0000
     57 H          -6.0585    5.0701   -0.8391 H       1  UNL1        0.0000
     58 H          -6.7275    3.5384   -2.6806 H       1  UNL1        0.0000
     59 H          -5.9014    1.1880   -2.6744 H       1  UNL1        0.0000
     60 H          -4.4416    0.3979   -0.8579 H       1  UNL1        0.0000
     61 H           3.8030    1.9719    1.7901 H       1  UNL1        0.0000
     62 H           6.1434    1.3834    1.2923 H       1  UNL1        0.0000
     63 H           7.2378    2.2370   -0.7702 H       1  UNL1        0.0000
     64 H           5.9502    3.6953   -2.3218 H       1  UNL1        0.0000
     65 H           3.6317    4.3103   -1.8091 H       1  UNL1        0.0000
     66 H           4.4417   -0.3972    0.8570 H       1  UNL1        0.0000
     67 H           5.9024   -1.1853    2.6738 H       1  UNL1        0.0000
     68 H           6.7292   -3.5354    2.6817 H       1  UNL1        0.0000
     69 H           6.0600   -5.0689    0.8418 H       1  UNL1        0.0000
     70 H           4.6084   -4.2771   -0.9682 H       1  UNL1        0.0000
     71 H           2.0909    5.5657   -0.4940 H       1  UNL1        0.0000
     72 H           1.4711    4.2971   -1.5793 H       1  UNL1        0.0000
     73 H           0.4775    4.8775   -0.2470 H       1  UNL1        0.0000
     74 H           0.9777    4.3733    2.0975 H       1  UNL1        0.0000
     75 H           2.3587    3.3843    2.5719 H       1  UNL1        0.0000
     76 H           2.6235    5.0200    1.9369 H       1  UNL1        0.0000
     77 H           4.0687   -3.2040   -2.8555 H       1  UNL1        0.0000
     78 H           2.6161   -3.6153   -1.9221 H       1  UNL1        0.0000
     79 H           2.5476   -2.3440   -3.1537 H       1  UNL1        0.0000
     80 H           4.5747    0.2354   -1.3917 H       1  UNL1        0.0000
     81 H           5.2740   -0.9883   -2.4604 H       1  UNL1        0.0000
     82 H           3.7409   -0.1919   -2.8946 H       1  UNL1        0.0000
     83 H          -2.6222   -5.0210   -1.9358 H       1  UNL1        0.0000
     84 H          -2.3556   -3.3859   -2.5717 H       1  UNL1        0.0000
     85 H          -0.9759   -4.3752   -2.0945 H       1  UNL1        0.0000
     86 H          -2.0932   -5.5650    0.4964 H       1  UNL1        0.0000
     87 H          -0.4792   -4.8777    0.2510 H       1  UNL1        0.0000
     88 H          -1.4742   -4.2958    1.5815 H       1  UNL1        0.0000
     89 H          -4.0706    3.2003    2.8577 H       1  UNL1        0.0000
     90 H          -2.5495    2.3404    3.1560 H       1  UNL1        0.0000
     91 H          -2.6174    3.6133    1.9260 H       1  UNL1        0.0000
     92 H          -5.2747    0.9845    2.4589 H       1  UNL1        0.0000
     93 H          -4.5741   -0.2375    1.3891 H       1  UNL1        0.0000
     94 H          -3.7415    0.1882    2.8931 H       1  UNL1        0.0000
@<TRIPOS>BOND
     1     1    11    1
     2     1     9    1
     3     2    12    1
     4     2    10    1
     5     2     1    1
     6     3    13    1
     7     4    29    1
     8     4    11    1
     9     5    22    1
    10     5     9    1
    11     6     7    1
    12     7     1    1
    13     8     2    1
    14     8     6    1
    15    10     5    1
    16    12     4    1
    17    13     1    1
    18    14     2    1
    19    14     3    1
    20    15     6    1
    21    15    16    1
    22    15    48    1
    23    16    17   ar
    24    17    18   ar
    25    17    51    1
    26    18    52    1
    27    19    53    1
    28    19    18   ar
    29    20    19   ar
    30    21    20   ar
    31    21    16   ar
    32    22    50    1
    33    22    49    1
    34    23    22    1
    35    24    23   ar
    36    24    56    1
    37    25    57    1
    38    25    24   ar
    39    26    27   ar
    40    26    25   ar
    41    27    28   ar
    42    28    23   ar
    43    29    44    1
    44    30    29    1
    45    30    31   ar
    46    31    61    1
    47    32    31   ar
    48    32    62    1
    49    33    32   ar
    50    34    35   ar
    51    34    33   ar
    52    35    30   ar
    53    36     3    1
    54    36    37    1
    55    37    42   ar
    56    37    38   ar
    57    38    66    1
    58    38    39   ar
    59    39    40   ar
    60    39    67    1
    61    40    68    1
    62    41    40   ar
    63    42    41   ar
    64    43    71    1
    65    43    73    1
    66    43    29    1
    67    44    76    1
    68    44    74    1
    69    44    75    1
    70    45    78    1
    71    45    36    1
    72    46    80    1
    73    46    36    1
    74    47    15    1
    75    48    88    1
    76    49    89    1
    77    49    90    1
    78    50    92    1
    79    50    94    1
    80    54    20    1
    81    55    21    1
    82    58    26    1
    83    59    27    1
    84    60    28    1
    85    63    33    1
    86    64    34    1
    87    65    35    1
    88    69    41    1
    89    70    42    1
    90    72    43    1
    91    77    45    1
    92    79    45    1
    93    81    46    1
    94    82    46    1
    95    83    47    1
    96    84    47    1
    97    85    47    1
    98    86    48    1
    99    87    48    1
   100    91    49    1
   101    93    50    1
