@<TRIPOS>MOLECULE
RhRh_ACyPropyl4_33
 102 117 0 0 0
SMALL
GASTEIGER

@<TRIPOS>ATOM
      1 Rh          0.0000   -1.0992   -2.4789 Rh      1  UNL1        0.0000
      2 Rh          0.0000   -0.1425   -0.2816 Rh      1  UNL1        0.0000
      3 C          -2.0203    0.9112   -2.0025 C.3     1  UNL1        0.0000
      4 C          -1.9250   -2.2763   -0.6906 C.3     1  UNL1        0.0000
      5 C           1.9250   -2.2763   -0.6905 C.3     1  UNL1        0.0000
      6 C           2.0204    0.9112   -2.0024 C.3     1  UNL1        0.0000
      7 O          -1.4586   -2.4068   -1.8713 O.3     1  UNL1        0.0000
      8 O          -1.5093   -1.4691    0.1930 O.3     1  UNL1        0.0000
      9 O           1.4585   -2.4069   -1.8712 O.3     1  UNL1        0.0000
     10 O           1.5094   -1.4691    0.1930 O.3     1  UNL1        0.0000
     11 O           1.4722    1.1442   -0.8790 O.3     1  UNL1        0.0000
     12 O           1.5354    0.2066   -2.9459 O.3     1  UNL1        0.0000
     13 O          -1.4721    1.1442   -0.8790 O.3     1  UNL1        0.0000
     14 O          -1.5352    0.2067   -2.9460 O.3     1  UNL1        0.0000
     15 N          -3.9227   -2.6977    0.7019 N.am    1  UNL1        0.0000
     16 N           3.9227   -2.6978    0.7019 N.am    1  UNL1        0.0000
     17 N           3.8804    2.2409   -1.1006 N.am    1  UNL1        0.0000
     18 N          -3.8804    2.2407   -1.1006 N.am    1  UNL1        0.0000
     19 C          -3.0448   -3.2001   -0.3041 C.3     1  UNL1        0.0000
     20 C          -3.6292   -4.1292   -1.3416 C.3     1  UNL1        0.0000
     21 C          -2.7189   -4.6887   -0.2977 C.3     1  UNL1        0.0000
     22 C          -3.6110   -2.6704    2.0802 C.2     1  UNL1        0.0000
     23 C          -4.7095   -1.8867    2.7153 C.ar    1  UNL1        0.0000
     24 C          -4.8908   -1.5225    4.0408 C.ar    1  UNL1        0.0000
     25 C          -6.0146   -0.7455    4.3481 C.ar    1  UNL1        0.0000
     26 C          -6.9205   -0.3599    3.3506 C.ar    1  UNL1        0.0000
     27 C          -6.7285   -0.7372    2.0163 C.ar    1  UNL1        0.0000
     28 C          -5.6104   -1.5009    1.7240 C.ar    1  UNL1        0.0000
     29 C          -5.1079   -1.9915    0.4092 C.2     1  UNL1        0.0000
     30 C           3.0447   -3.2003   -0.3040 C.3     1  UNL1        0.0000
     31 C           2.7188   -4.6888   -0.2974 C.3     1  UNL1        0.0000
     32 C           3.6290   -4.1294   -1.3414 C.3     1  UNL1        0.0000
     33 C           3.6111   -2.6704    2.0802 C.2     1  UNL1        0.0000
     34 C           4.7096   -1.8867    2.7153 C.ar    1  UNL1        0.0000
     35 C           4.8910   -1.5225    4.0407 C.ar    1  UNL1        0.0000
     36 C           6.0149   -0.7454    4.3479 C.ar    1  UNL1        0.0000
     37 C           6.9207   -0.3598    3.3504 C.ar    1  UNL1        0.0000
     38 C           6.7285   -0.7372    2.0161 C.ar    1  UNL1        0.0000
     39 C           5.6105   -1.5009    1.7239 C.ar    1  UNL1        0.0000
     40 C           5.1079   -1.9915    0.4091 C.2     1  UNL1        0.0000
     41 C           3.4071    1.4362   -2.1811 C.3     1  UNL1        0.0000
     42 C           3.9718    1.6567   -3.5664 C.3     1  UNL1        0.0000
     43 C           4.4004    0.4515   -2.8019 C.3     1  UNL1        0.0000
     44 C           4.1086    1.6961    0.1788 C.2     1  UNL1        0.0000
     45 C           4.4340    2.8491    1.0583 C.ar    1  UNL1        0.0000
     46 C           4.7959    2.8717    2.3965 C.ar    1  UNL1        0.0000
     47 C           5.0449    4.1249    2.9695 C.ar    1  UNL1        0.0000
     48 C           4.9318    5.3006    2.2163 C.ar    1  UNL1        0.0000
     49 C           4.5693    5.2634    0.8639 C.ar    1  UNL1        0.0000
     50 C           4.3254    4.0189    0.3043 C.ar    1  UNL1        0.0000
     51 C           3.9285    3.6510   -1.0882 C.2     1  UNL1        0.0000
     52 C          -3.4070    1.4361   -2.1812 C.3     1  UNL1        0.0000
     53 C          -4.4002    0.4513   -2.8020 C.3     1  UNL1        0.0000
     54 C          -3.9718    1.6566   -3.5664 C.3     1  UNL1        0.0000
     55 C          -4.1086    1.6959    0.1787 C.2     1  UNL1        0.0000
     56 C          -4.4342    2.8489    1.0582 C.ar    1  UNL1        0.0000
     57 C          -4.7961    2.8714    2.3964 C.ar    1  UNL1        0.0000
     58 C          -5.0452    4.1247    2.9694 C.ar    1  UNL1        0.0000
     59 C          -4.9323    5.3004    2.2162 C.ar    1  UNL1        0.0000
     60 C          -4.5696    5.2632    0.8638 C.ar    1  UNL1        0.0000
     61 C          -4.3256    4.0187    0.3042 C.ar    1  UNL1        0.0000
     62 C          -3.9286    3.6509   -1.0883 C.2     1  UNL1        0.0000
     63 H          -4.6935   -4.3100   -1.2611 H       1  UNL1        0.0000
     64 H          -3.2485   -4.0092   -2.3479 H       1  UNL1        0.0000
     65 H          -1.7074   -4.9577   -0.5803 H       1  UNL1        0.0000
     66 H          -3.1351   -5.2553    0.5267 H       1  UNL1        0.0000
     67 H          -7.4143   -0.4361    1.2319 H       1  UNL1        0.0000
     68 H           3.1349   -5.2553    0.5270 H       1  UNL1        0.0000
     69 H           1.7072   -4.9577   -0.5800 H       1  UNL1        0.0000
     70 H           3.2483   -4.0095   -2.3478 H       1  UNL1        0.0000
     71 H           4.6933   -4.3102   -1.2609 H       1  UNL1        0.0000
     72 H           4.1797   -1.8262    4.8011 H       1  UNL1        0.0000
     73 H           7.7828    0.2429    3.6189 H       1  UNL1        0.0000
     74 H           7.4143   -0.4361    1.2316 H       1  UNL1        0.0000
     75 H           4.6513    2.4938   -3.6671 H       1  UNL1        0.0000
     76 H           3.2671    1.5256   -4.3790 H       1  UNL1        0.0000
     77 H           3.9944   -0.5148   -3.0732 H       1  UNL1        0.0000
     78 H           5.3783    0.4276   -2.3368 H       1  UNL1        0.0000
     79 H           4.4787    6.1670    0.2709 H       1  UNL1        0.0000
     80 H          -5.3781    0.4273   -2.3369 H       1  UNL1        0.0000
     81 H          -3.9942   -0.5149   -3.0733 H       1  UNL1        0.0000
     82 H          -3.2671    1.5255   -4.3790 H       1  UNL1        0.0000
     83 H          -4.6514    2.4935   -3.6671 H       1  UNL1        0.0000
     84 H          -4.8826    1.9511    2.9643 H       1  UNL1        0.0000
     85 H          -5.1296    6.2562    2.6911 H       1  UNL1        0.0000
     86 H          -4.4791    6.1668    0.2708 H       1  UNL1        0.0000
     87 O          -4.0356    0.5205    0.4624 O.2     1  UNL1        0.0000
     88 O          -3.7034    4.3783   -2.0315 O.2     1  UNL1        0.0000
     89 O           4.0357    0.5207    0.4624 O.2     1  UNL1        0.0000
     90 O           3.7033    4.3785   -2.0315 O.2     1  UNL1        0.0000
     91 O           2.6581   -3.2076    2.5986 O.2     1  UNL1        0.0000
     92 O           5.5974   -1.8533   -0.6927 O.2     1  UNL1        0.0000
     93 O          -2.6580   -3.2076    2.5985 O.2     1  UNL1        0.0000
     94 O          -5.5975   -1.8533   -0.6926 O.2     1  UNL1        0.0000
     95 H          -4.1793   -1.8262    4.8011 H       1  UNL1        0.0000
     96 H          -6.1897   -0.4372    5.3741 H       1  UNL1        0.0000
     97 H          -7.7826    0.2428    3.6193 H       1  UNL1        0.0000
     98 H           6.1901   -0.4371    5.3739 H       1  UNL1        0.0000
     99 H           4.8824    1.9513    2.9644 H       1  UNL1        0.0000
    100 H           5.3291    4.1897    4.0151 H       1  UNL1        0.0000
    101 H           5.1291    6.2565    2.6913 H       1  UNL1        0.0000
    102 H          -5.3295    4.1895    4.0149 H       1  UNL1        0.0000
@<TRIPOS>BOND
     1     1     7    1
     2     1     9    1
     3     1     2    1
     4     2     8    1
     5     2    10    1
     6     3    13    1
     7     4    19    1
     8     4     8    1
     9     5    30    1
    10     5    10    1
    11     6    11    1
    12     7     4    1
    13     9     5    1
    14    11     2    1
    15    12     1    1
    16    12     6    1
    17    13     2    1
    18    14     1    1
    19    14     3    1
    20    15    22   am
    21    16    33   am
    22    17    51   am
    23    17    44   am
    24    18    62   am
    25    18    55   am
    26    19    21    1
    27    19    15    1
    28    20    63    1
    29    20    19    1
    30    20    21    1
    31    21    66    1
    32    22    93    2
    33    22    23    1
    34    23    24   ar
    35    24    25   ar
    36    24    95    1
    37    25    96    1
    38    26    97    1
    39    26    25   ar
    40    27    26   ar
    41    28    27   ar
    42    28    23   ar
    43    29    15   am
    44    29    28    1
    45    30    31    1
    46    30    16    1
    47    31    68    1
    48    32    71    1
    49    32    30    1
    50    32    31    1
    51    33    91    2
    52    33    34    1
    53    34    35   ar
    54    35    36   ar
    55    35    72    1
    56    36    98    1
    57    37    73    1
    58    37    36   ar
    59    38    37   ar
    60    39    38   ar
    61    39    34   ar
    62    40    16   am
    63    40    39    1
    64    41     6    1
    65    41    17    1
    66    42    43    1
    67    42    41    1
    68    43    78    1
    69    43    41    1
    70    44    89    2
    71    44    45    1
    72    45    46   ar
    73    46    99    1
    74    46    47   ar
    75    47   100    1
    76    48   101    1
    77    48    47   ar
    78    49    48   ar
    79    50    49   ar
    80    50    45   ar
    81    51    50    1
    82    52     3    1
    83    52    18    1
    84    53    80    1
    85    53    52    1
    86    54    53    1
    87    54    52    1
    88    55    87    2
    89    55    56    1
    90    56    57   ar
    91    57    84    1
    92    57    58   ar
    93    58   102    1
    94    59    85    1
    95    59    58   ar
    96    60    59   ar
    97    61    60   ar
    98    61    56   ar
    99    62    61    1
   100    64    20    1
   101    65    21    1
   102    67    27    1
   103    69    31    1
   104    70    32    1
   105    74    38    1
   106    75    42    1
   107    76    42    1
   108    77    43    1
   109    79    49    1
   110    81    53    1
   111    82    54    1
   112    83    54    1
   113    86    60    1
   114    88    62    2
   115    90    51    2
   116    92    40    2
   117    94    29    2
