@<TRIPOS>MOLECULE
RhRh_MeMePh-O2C4_D2ax_sp
 94 101 0 0 0
SMALL
GASTEIGER

@<TRIPOS>ATOM
      1 Rh         -0.5756   -0.7909   -1.3707 Rh      1  UNL1        0.0000
      2 Rh         -0.3145   -0.5068    0.9854 Rh      1  UNL1        0.0000
      3 C          -1.7933    1.6100   -0.3091 C.3     1  UNL1        0.0000
      4 C           1.7381    0.7701   -0.6169 C.3     1  UNL1        0.0000
      5 C           1.0466   -2.8225   -0.0981 C.3     1  UNL1        0.0000
      6 C          -2.6865   -1.9667    0.2288 C.3     1  UNL1        0.0000
      7 O          -2.3123   -1.8311   -0.9803 O.3     1  UNL1        0.0000
      8 O          -2.0199   -1.6188    1.2542 O.3     1  UNL1        0.0000
      9 O           0.5479   -2.5065   -1.2234 O.3     1  UNL1        0.0000
     10 O           0.8446   -2.2092    0.9992 O.3     1  UNL1        0.0000
     11 O           1.1502    0.2758   -1.6343 O.3     1  UNL1        0.0000
     12 O           1.3499    0.6355    0.5855 O.3     1  UNL1        0.0000
     13 O          -1.6239    0.9801   -1.4008 O.3     1  UNL1        0.0000
     14 O          -1.4703    1.1798    0.8455 O.3     1  UNL1        0.0000
     15 C          -4.0943   -2.5267    0.4749 C.3     1  UNL1        0.0000
     16 C          -5.0021   -1.2809    0.5358 C.ar    1  UNL1        0.0000
     17 C          -5.7375   -0.9485    1.6778 C.ar    1  UNL1        0.0000
     18 C          -6.5610    0.1792    1.6968 C.ar    1  UNL1        0.0000
     19 C          -6.6649    0.9943    0.5720 C.ar    1  UNL1        0.0000
     20 C          -5.9290    0.6766   -0.5712 C.ar    1  UNL1        0.0000
     21 C          -5.0991   -0.4419   -0.5856 C.ar    1  UNL1        0.0000
     22 C           2.0135   -4.0171   -0.0644 C.3     1  UNL1        0.0000
     23 C           3.4315   -3.4110   -0.1139 C.ar    1  UNL1        0.0000
     24 C           4.2819   -3.6019   -1.2084 C.ar    1  UNL1        0.0000
     25 C           5.5703   -3.0631   -1.2197 C.ar    1  UNL1        0.0000
     26 C           6.0335   -2.3220   -0.1354 C.ar    1  UNL1        0.0000
     27 C           5.1908   -2.1134    0.9576 C.ar    1  UNL1        0.0000
     28 C           3.9024   -2.6437    0.9635 C.ar    1  UNL1        0.0000
     29 C           3.0139    1.5738   -0.9220 C.3     1  UNL1        0.0000
     30 C           3.6524    2.1289    0.3519 C.ar    1  UNL1        0.0000
     31 C           3.9486    3.4862    0.5049 C.ar    1  UNL1        0.0000
     32 C           4.5765    3.9613    1.6595 C.ar    1  UNL1        0.0000
     33 C           4.9206    3.0842    2.6845 C.ar    1  UNL1        0.0000
     34 C           4.6341    1.7244    2.5425 C.ar    1  UNL1        0.0000
     35 C           4.0114    1.2559    1.3901 C.ar    1  UNL1        0.0000
     36 C          -2.3692    3.0296   -0.3850 C.3     1  UNL1        0.0000
     37 C          -1.1486    3.9761   -0.3545 C.ar    1  UNL1        0.0000
     38 C          -0.2465    3.9204    0.7204 C.ar    1  UNL1        0.0000
     39 C           0.8375    4.7908    0.7939 C.ar    1  UNL1        0.0000
     40 C           1.0478    5.7374   -0.2104 C.ar    1  UNL1        0.0000
     41 C           0.1691    5.7938   -1.2899 C.ar    1  UNL1        0.0000
     42 C          -0.9169    4.9183   -1.3628 C.ar    1  UNL1        0.0000
     43 C           4.0072    0.6005   -1.6101 C.3     1  UNL1        0.0000
     44 C           2.6158    2.6719   -1.9300 C.3     1  UNL1        0.0000
     45 C          -3.2065    3.1756   -1.6624 C.3     1  UNL1        0.0000
     46 C          -3.2652    3.2947    0.8444 C.3     1  UNL1        0.0000
     47 C          -4.5277   -3.4380   -0.6899 C.3     1  UNL1        0.0000
     48 C          -4.0973   -3.3376    1.7791 C.3     1  UNL1        0.0000
     49 C           1.7217   -4.9472   -1.2507 C.3     1  UNL1        0.0000
     50 C           1.8179   -4.8063    1.2474 C.3     1  UNL1        0.0000
     51 H          -5.6758   -1.5662    2.5650 H       1  UNL1        0.0000
     52 H          -7.1224    0.4159    2.5955 H       1  UNL1        0.0000
     53 H          -7.3096    1.8676    0.5841 H       1  UNL1        0.0000
     54 H          -6.0038    1.3001   -1.4568 H       1  UNL1        0.0000
     55 H          -4.5103   -0.6589   -1.4697 H       1  UNL1        0.0000
     56 H           3.9494   -4.1768   -2.0636 H       1  UNL1        0.0000
     57 H           6.2099   -3.2269   -2.0817 H       1  UNL1        0.0000
     58 H           7.0350   -1.9036   -0.1427 H       1  UNL1        0.0000
     59 H           5.5342   -1.5266    1.8037 H       1  UNL1        0.0000
     60 H           3.2495   -2.4483    1.8060 H       1  UNL1        0.0000
     61 H           3.6816    4.1920   -0.2710 H       1  UNL1        0.0000
     62 H           4.7942    5.0214    1.7521 H       1  UNL1        0.0000
     63 H           5.4066    3.4523    3.5830 H       1  UNL1        0.0000
     64 H           4.8941    1.0273    3.3342 H       1  UNL1        0.0000
     65 H           3.7871    0.2013    1.2976 H       1  UNL1        0.0000
     66 H          -0.3855    3.1780    1.4963 H       1  UNL1        0.0000
     67 H           1.5287    4.7147    1.6261 H       1  UNL1        0.0000
     68 H           1.8934    6.4165   -0.1548 H       1  UNL1        0.0000
     69 H           0.3245    6.5187   -2.0834 H       1  UNL1        0.0000
     70 H          -1.5829    4.9826   -2.2143 H       1  UNL1        0.0000
     71 H           4.9268    1.1405   -1.8526 H       1  UNL1        0.0000
     72 H           4.2674   -0.2386   -0.9626 H       1  UNL1        0.0000
     73 H           3.5715    0.2047   -2.5298 H       1  UNL1        0.0000
     74 H           2.1601    2.2102   -2.8063 H       1  UNL1        0.0000
     75 H           1.9013    3.3775   -1.5006 H       1  UNL1        0.0000
     76 H           3.5025    3.2242   -2.2532 H       1  UNL1        0.0000
     77 H          -3.6427    4.1770   -1.7142 H       1  UNL1        0.0000
     78 H          -2.6141    2.9953   -2.5601 H       1  UNL1        0.0000
     79 H          -4.0220    2.4508   -1.6463 H       1  UNL1        0.0000
     80 H          -2.7137    3.1640    1.7751 H       1  UNL1        0.0000
     81 H          -3.6396    4.3213    0.8010 H       1  UNL1        0.0000
     82 H          -4.1177    2.6094    0.8512 H       1  UNL1        0.0000
     83 H          -5.5484   -3.7886   -0.5140 H       1  UNL1        0.0000
     84 H          -4.4976   -2.9167   -1.6459 H       1  UNL1        0.0000
     85 H          -3.8682   -4.3083   -0.7597 H       1  UNL1        0.0000
     86 H          -5.1002   -3.7239    1.9812 H       1  UNL1        0.0000
     87 H          -3.4205   -4.1911    1.6837 H       1  UNL1        0.0000
     88 H          -3.7634   -2.7403    2.6277 H       1  UNL1        0.0000
     89 H           2.4237   -5.7857   -1.2503 H       1  UNL1        0.0000
     90 H           0.7092   -5.3496   -1.1633 H       1  UNL1        0.0000
     91 H           1.7857   -4.4248   -2.2052 H       1  UNL1        0.0000
     92 H           2.5402   -5.6261    1.2892 H       1  UNL1        0.0000
     93 H           1.9509   -4.1765    2.1259 H       1  UNL1        0.0000
     94 H           0.8097   -5.2301    1.2874 H       1  UNL1        0.0000
@<TRIPOS>BOND
     1     1     9    1
     2     1     7    1
     3     1     2    1
     4     2    10    1
     5     2     8    1
     6     3    14    1
     7     4    12    1
     8     5    22    1
     9     5    10    1
    10     6    15    1
    11     6     8    1
    12     7     6    1
    13     9     5    1
    14    11     1    1
    15    11     4    1
    16    12     2    1
    17    13     1    1
    18    13     3    1
    19    14     2    1
    20    15    16    1
    21    15    48    1
    22    16    17   ar
    23    17    18   ar
    24    17    51    1
    25    18    52    1
    26    19    53    1
    27    19    18   ar
    28    20    19   ar
    29    21    20   ar
    30    21    16   ar
    31    22    50    1
    32    23    22    1
    33    23    28   ar
    34    24    23   ar
    35    25    24   ar
    36    25    26   ar
    37    26    27   ar
    38    27    28   ar
    39    27    59    1
    40    28    60    1
    41    29     4    1
    42    29    30    1
    43    30    31   ar
    44    30    35   ar
    45    31    32   ar
    46    32    62    1
    47    32    33   ar
    48    33    63    1
    49    34    33   ar
    50    34    64    1
    51    35    34   ar
    52    36    37    1
    53    36     3    1
    54    36    46    1
    55    37    38   ar
    56    38    39   ar
    57    38    66    1
    58    39    67    1
    59    40    68    1
    60    40    39   ar
    61    41    40   ar
    62    42    41   ar
    63    42    37   ar
    64    43    72    1
    65    43    29    1
    66    44    75    1
    67    44    29    1
    68    45    79    1
    69    45    36    1
    70    46    82    1
    71    46    80    1
    72    47    83    1
    73    47    15    1
    74    48    86    1
    75    48    88    1
    76    49    89    1
    77    49    90    1
    78    49    22    1
    79    50    94    1
    80    50    92    1
    81    50    93    1
    82    54    20    1
    83    55    21    1
    84    56    24    1
    85    57    25    1
    86    58    26    1
    87    61    31    1
    88    65    35    1
    89    69    41    1
    90    70    42    1
    91    71    43    1
    92    73    43    1
    93    74    44    1
    94    76    44    1
    95    77    45    1
    96    78    45    1
    97    81    46    1
    98    84    47    1
    99    85    47    1
   100    87    48    1
   101    91    49    1
