@<TRIPOS>MOLECULE
RhRh_MeMePh-O2C4_3-1_sp
 94 101 0 0 0
SMALL
GASTEIGER

@<TRIPOS>ATOM
      1 Rh          0.1272   -0.4079    1.0691 Rh      1  UNL1        0.0000
      2 Rh          0.4424   -0.2103   -1.2896 Rh      1  UNL1        0.0000
      3 C           2.4155    1.1855    0.3019 C.3     1  UNL1        0.0000
      4 C          -1.1903    1.8757   -0.1383 C.3     1  UNL1        0.0000
      5 C          -1.8781   -1.7571   -0.5083 C.3     1  UNL1        0.0000
      6 C           1.7988   -2.4638   -0.0885 C.3     1  UNL1        0.0000
      7 O           1.3318   -2.0756    1.0299 O.3     1  UNL1        0.0000
      8 O           1.5311   -1.9508   -1.2208 O.3     1  UNL1        0.0000
      9 O          -1.5038   -1.5843    0.6940 O.3     1  UNL1        0.0000
     10 O          -1.3034   -1.2758   -1.5381 O.3     1  UNL1        0.0000
     11 O          -1.0514    1.2747    0.9735 O.3     1  UNL1        0.0000
     12 O          -0.6453    1.5315   -1.2368 O.3     1  UNL1        0.0000
     13 O           1.7841    0.7803    1.3284 O.3     1  UNL1        0.0000
     14 O           2.1557    0.8619   -0.9018 O.3     1  UNL1        0.0000
     15 C           2.8267   -3.6031   -0.0700 C.3     1  UNL1        0.0000
     16 C           4.1964   -2.8970   -0.0190 C.ar    1  UNL1        0.0000
     17 C           5.1611   -3.0648   -1.0171 C.ar    1  UNL1        0.0000
     18 C           6.3982   -2.4223   -0.9331 C.ar    1  UNL1        0.0000
     19 C           6.6927   -1.6011    0.1526 C.ar    1  UNL1        0.0000
     20 C           5.7343   -1.4205    1.1517 C.ar    1  UNL1        0.0000
     21 C           4.4966   -2.0534    1.0621 C.ar    1  UNL1        0.0000
     22 C          -3.0679   -2.6983   -0.7342 C.3     1  UNL1        0.0000
     23 C          -4.0899   -2.5322    0.3924 C.ar    1  UNL1        0.0000
     24 C          -4.6786   -3.6264    1.0314 C.ar    1  UNL1        0.0000
     25 C          -5.6553   -3.4429    2.0131 C.ar    1  UNL1        0.0000
     26 C          -6.0569   -2.1588    2.3721 C.ar    1  UNL1        0.0000
     27 C          -5.4757   -1.0580    1.7395 C.ar    1  UNL1        0.0000
     28 C          -4.5062   -1.2440    0.7590 C.ar    1  UNL1        0.0000
     29 C          -2.1425    3.0789   -0.1659 C.3     1  UNL1        0.0000
     30 C          -3.5454    2.4911   -0.4124 C.ar    1  UNL1        0.0000
     31 C          -3.7873    1.7547   -1.5833 C.ar    1  UNL1        0.0000
     32 C          -5.0572    1.2568   -1.8662 C.ar    1  UNL1        0.0000
     33 C          -6.1114    1.4707   -0.9772 C.ar    1  UNL1        0.0000
     34 C          -5.8790    2.1860    0.1951 C.ar    1  UNL1        0.0000
     35 C          -4.6064    2.6881    0.4772 C.ar    1  UNL1        0.0000
     36 C           3.5352    2.2113    0.5285 C.3     1  UNL1        0.0000
     37 C           2.8451    3.5798    0.3486 C.ar    1  UNL1        0.0000
     38 C           2.3581    3.9539   -0.9130 C.ar    1  UNL1        0.0000
     39 C           1.7342    5.1843   -1.1044 C.ar    1  UNL1        0.0000
     40 C           1.5614    6.0615   -0.0321 C.ar    1  UNL1        0.0000
     41 C           2.0221    5.6927    1.2299 C.ar    1  UNL1        0.0000
     42 C           2.6586    4.4638    1.4172 C.ar    1  UNL1        0.0000
     43 C          -2.0225    3.8380    1.1646 C.3     1  UNL1        0.0000
     44 C          -1.7779    4.0314   -1.3219 C.3     1  UNL1        0.0000
     45 C           4.1294    2.0255    1.9316 C.3     1  UNL1        0.0000
     46 C           4.6518    2.0179   -0.5175 C.3     1  UNL1        0.0000
     47 C           2.6410   -4.4816    1.1825 C.3     1  UNL1        0.0000
     48 C           2.6398   -4.4676   -1.3261 C.3     1  UNL1        0.0000
     49 C          -2.4388   -4.1101   -0.7834 C.3     1  UNL1        0.0000
     50 C          -3.7457   -2.3943   -2.0848 C.3     1  UNL1        0.0000
     51 H           4.9574   -3.6989   -1.8711 H       1  UNL1        0.0000
     52 H           7.1311   -2.5690   -1.7207 H       1  UNL1        0.0000
     53 H           7.6565   -1.1062    0.2215 H       1  UNL1        0.0000
     54 H           5.9530   -0.7881    2.0065 H       1  UNL1        0.0000
     55 H           3.7511   -1.8816    1.8309 H       1  UNL1        0.0000
     56 H          -4.3790   -4.6358    0.7744 H       1  UNL1        0.0000
     57 H          -6.0968   -4.3089    2.4975 H       1  UNL1        0.0000
     58 H          -6.8129   -2.0149    3.1382 H       1  UNL1        0.0000
     59 H          -5.7737   -0.0493    2.0044 H       1  UNL1        0.0000
     60 H          -4.0632   -0.3749    0.2853 H       1  UNL1        0.0000
     61 H          -2.9716    1.5624   -2.2715 H       1  UNL1        0.0000
     62 H          -5.2219    0.6974   -2.7820 H       1  UNL1        0.0000
     63 H          -7.0993    1.0763   -1.1925 H       1  UNL1        0.0000
     64 H          -6.6887    2.3563    0.8985 H       1  UNL1        0.0000
     65 H          -4.4508    3.2402    1.3960 H       1  UNL1        0.0000
     66 H           2.4530    3.2697   -1.7476 H       1  UNL1        0.0000
     67 H           1.3767    5.4547   -2.0933 H       1  UNL1        0.0000
     68 H           1.0706    7.0185   -0.1798 H       1  UNL1        0.0000
     69 H           1.8918    6.3615    2.0754 H       1  UNL1        0.0000
     70 H           3.0095    4.2032    2.4079 H       1  UNL1        0.0000
     71 H          -2.6940    4.7012    1.1672 H       1  UNL1        0.0000
     72 H          -2.2549    3.1990    2.0172 H       1  UNL1        0.0000
     73 H          -0.9999    4.2059    1.2851 H       1  UNL1        0.0000
     74 H          -0.7771    4.4414   -1.1723 H       1  UNL1        0.0000
     75 H          -1.7985    3.5241   -2.2861 H       1  UNL1        0.0000
     76 H          -2.4966    4.8555   -1.3458 H       1  UNL1        0.0000
     77 H           4.8961    2.7831    2.1169 H       1  UNL1        0.0000
     78 H           3.3685    2.0856    2.7097 H       1  UNL1        0.0000
     79 H           4.5970    1.0417    1.9993 H       1  UNL1        0.0000
     80 H           4.2724    2.0858   -1.5362 H       1  UNL1        0.0000
     81 H           5.4166    2.7869   -0.3762 H       1  UNL1        0.0000
     82 H           5.1161    1.0352   -0.3964 H       1  UNL1        0.0000
     83 H           3.4063   -5.2627    1.1922 H       1  UNL1        0.0000
     84 H           2.7235   -3.9010    2.1007 H       1  UNL1        0.0000
     85 H           1.6563   -4.9580    1.1728 H       1  UNL1        0.0000
     86 H           3.3727   -5.2791   -1.3393 H       1  UNL1        0.0000
     87 H           1.6422   -4.9158   -1.3188 H       1  UNL1        0.0000
     88 H           2.7360   -3.8801   -2.2394 H       1  UNL1        0.0000
     89 H          -3.1910   -4.8565   -1.0520 H       1  UNL1        0.0000
     90 H          -1.6552   -4.1361   -1.5458 H       1  UNL1        0.0000
     91 H          -2.0003   -4.3799    0.1805 H       1  UNL1        0.0000
     92 H          -4.5788   -3.0873   -2.2316 H       1  UNL1        0.0000
     93 H          -4.1406   -1.3769   -2.0992 H       1  UNL1        0.0000
     94 H          -3.0384   -2.5031   -2.9096 H       1  UNL1        0.0000
@<TRIPOS>BOND
     1     1    13    1
     2     2    12    1
     3     2     8    1
     4     2    14    1
     5     2     1    1
     6     3    36    1
     7     3    13    1
     8     4    11    1
     9     5     9    1
    10     6    15    1
    11     6     7    1
    12     7     1    1
    13     8     6    1
    14     9     1    1
    15    10     2    1
    16    10     5    1
    17    11     1    1
    18    12     4    1
    19    14     3    1
    20    15    16    1
    21    15    47    1
    22    16    21   ar
    23    17    18   ar
    24    17    16   ar
    25    18    19   ar
    26    19    53    1
    27    19    20   ar
    28    20    54    1
    29    21    20   ar
    30    21    55    1
    31    22     5    1
    32    22    23    1
    33    23    28   ar
    34    23    24   ar
    35    24    25   ar
    36    25    26   ar
    37    25    57    1
    38    26    58    1
    39    27    59    1
    40    27    26   ar
    41    28    27   ar
    42    29     4    1
    43    29    43    1
    44    30    29    1
    45    30    35   ar
    46    31    30   ar
    47    32    31   ar
    48    32    33   ar
    49    33    34   ar
    50    34    35   ar
    51    34    64    1
    52    35    65    1
    53    36    45    1
    54    37    36    1
    55    37    42   ar
    56    38    37   ar
    57    39    38   ar
    58    39    40   ar
    59    40    41   ar
    60    41    42   ar
    61    41    69    1
    62    42    70    1
    63    43    71    1
    64    43    73    1
    65    43    72    1
    66    44    74    1
    67    44    29    1
    68    45    79    1
    69    45    77    1
    70    45    78    1
    71    46    82    1
    72    46    81    1
    73    46    36    1
    74    47    83    1
    75    47    84    1
    76    48    87    1
    77    48    15    1
    78    49    22    1
    79    49    91    1
    80    50    22    1
    81    51    17    1
    82    52    18    1
    83    56    24    1
    84    60    28    1
    85    61    31    1
    86    62    32    1
    87    63    33    1
    88    66    38    1
    89    67    39    1
    90    68    40    1
    91    75    44    1
    92    76    44    1
    93    80    46    1
    94    85    47    1
    95    86    48    1
    96    88    48    1
    97    89    49    1
    98    90    49    1
    99    92    50    1
   100    93    50    1
   101    94    50    1
