@<TRIPOS>MOLECULE
RhRh_cis-Cy-fused-Hback-S-PTV4_5_sp
 146 157 0 0 0
SMALL
GASTEIGER

@<TRIPOS>ATOM
      1 Rh         -0.0327   -0.2647    0.1704 Rh      1  UNL1        0.0000
      2 Rh         -0.0945   -0.2292   -2.2215 Rh      1  UNL1        0.0000
      3 C          -0.6821   -2.7864   -1.0565 C.3     1  UNL1        0.0000
      4 C           0.5370    2.3013   -0.9954 C.3     1  UNL1        0.0000
      5 C           2.4865   -0.8215   -1.0958 C.3     1  UNL1        0.0000
      6 C          -2.6062    0.3698   -0.9363 C.3     1  UNL1        0.0000
      7 O          -2.0202    0.1800    0.1779 O.3     1  UNL1        0.0000
      8 O          -2.1097    0.1928   -2.0855 O.3     1  UNL1        0.0000
      9 O          -0.4650   -2.2521    0.0794 O.3     1  UNL1        0.0000
     10 O          -0.5214   -2.2431   -2.1867 O.3     1  UNL1        0.0000
     11 O           1.9523   -0.6933    0.0535 O.3     1  UNL1        0.0000
     12 O           1.9206   -0.6335   -2.2115 O.3     1  UNL1        0.0000
     13 O           0.3838    1.7359    0.1361 O.3     1  UNL1        0.0000
     14 O           0.3381    1.7776   -2.1290 O.3     1  UNL1        0.0000
     15 N          -3.9623    1.9588    0.2123 N.am    1  UNL1        0.0000
     16 N          -2.1480   -4.2884    0.1081 N.am    1  UNL1        0.0000
     17 N           4.0373   -2.3603   -0.1053 N.am    1  UNL1        0.0000
     18 N           2.0940    3.7921    0.0631 N.am    1  UNL1        0.0000
     19 C          -4.6342    1.8737    1.4337 C.2     1  UNL1        0.0000
     20 C          -3.0018    2.9707    0.1951 C.2     1  UNL1        0.0000
     21 C          -3.1836   -3.3594    0.2638 C.2     1  UNL1        0.0000
     22 C          -1.8507   -4.9472    1.3093 C.2     1  UNL1        0.0000
     23 C           3.1183   -3.4165   -0.0723 C.2     1  UNL1        0.0000
     24 C           4.7793   -2.2687    1.0759 C.2     1  UNL1        0.0000
     25 C           2.0864    4.6702    1.1520 C.2     1  UNL1        0.0000
     26 C           3.0962    2.8242    0.1652 C.2     1  UNL1        0.0000
     27 C          -4.0321    0.9096   -0.8046 C.3     1  UNL1        0.0000
     28 C          -4.6862    1.3472   -2.1271 C.3     1  UNL1        0.0000
     29 C          -5.0630    0.1059   -2.9470 C.3     1  UNL1        0.0000
     30 C          -5.9183    2.2184   -1.8588 C.3     1  UNL1        0.0000
     31 C          -1.1643   -4.2322   -0.9785 C.3     1  UNL1        0.0000
     32 C          -1.6061   -4.8803   -2.3002 C.3     1  UNL1        0.0000
     33 C          -2.8371   -4.2432   -2.9538 C.3     1  UNL1        0.0000
     34 C          -1.8126   -6.3843   -2.0819 C.3     1  UNL1        0.0000
     35 C           3.9552   -1.2302   -1.0371 C.3     1  UNL1        0.0000
     36 C           4.7091   -1.4423   -2.3622 C.3     1  UNL1        0.0000
     37 C           4.1623   -2.5690   -3.2448 C.3     1  UNL1        0.0000
     38 C           4.8112   -0.1156   -3.1304 C.3     1  UNL1        0.0000
     39 C           0.9961    3.7541   -0.9052 C.3     1  UNL1        0.0000
     40 C           1.3048    4.5032   -2.2155 C.3     1  UNL1        0.0000
     41 C           2.4569    3.9070   -3.0316 C.3     1  UNL1        0.0000
     42 C           0.0311    4.6689   -3.0568 C.3     1  UNL1        0.0000
     43 C           5.2065    2.5700    1.6245 C.3     1  UNL1        0.0000
     44 C           3.7371    2.9811    1.5362 C.3     1  UNL1        0.0000
     45 C           3.3851    4.4378    1.9119 C.3     1  UNL1        0.0000
     46 C           4.4375    5.4546    1.4024 C.3     1  UNL1        0.0000
     47 C           5.8726    5.0000    1.6852 C.3     1  UNL1        0.0000
     48 C           6.1430    3.6332    1.0448 C.3     1  UNL1        0.0000
     49 C           1.9897   -3.6083    2.1012 C.3     1  UNL1        0.0000
     50 C           4.7047   -3.4372    3.3605 C.3     1  UNL1        0.0000
     51 C           3.4395   -2.8828    4.0220 C.3     1  UNL1        0.0000
     52 C           2.2117   -3.7018    3.6106 C.3     1  UNL1        0.0000
     53 C           4.5728   -3.5720    1.8409 C.3     1  UNL1        0.0000
     54 C           3.2241   -4.0849    1.2882 C.3     1  UNL1        0.0000
     55 C          -3.5302   -1.5065    2.9361 C.3     1  UNL1        0.0000
     56 C          -4.5295   -2.4373    2.2448 C.3     1  UNL1        0.0000
     57 C          -1.8409   -3.3519    3.1708 C.3     1  UNL1        0.0000
     58 C          -2.6521   -2.2903    3.9166 C.3     1  UNL1        0.0000
     59 C          -3.8628   -3.6536    1.5946 C.3     1  UNL1        0.0000
     60 C          -2.7384   -4.3521    2.3912 C.3     1  UNL1        0.0000
     61 C          -4.8804    5.6000    2.3142 C.3     1  UNL1        0.0000
     62 C          -5.3696    4.1798    2.0177 C.3     1  UNL1        0.0000
     63 C          -2.5062    5.0005    1.7170 C.3     1  UNL1        0.0000
     64 C          -3.6742    5.9489    1.4343 C.3     1  UNL1        0.0000
     65 C          -2.9082    3.5297    1.6063 C.3     1  UNL1        0.0000
     66 C          -4.2613    3.1178    2.2288 C.3     1  UNL1        0.0000
     67 H          -4.6272    0.1121   -0.3459 H       1  UNL1        0.0000
     68 H          -5.4741    0.4026   -3.9167 H       1  UNL1        0.0000
     69 H          -5.8257   -0.4831   -2.4243 H       1  UNL1        0.0000
     70 H          -4.1984   -0.5361   -3.1221 H       1  UNL1        0.0000
     71 H          -5.6477    3.1675   -1.3880 H       1  UNL1        0.0000
     72 H          -6.6301    1.7046   -1.2026 H       1  UNL1        0.0000
     73 H          -6.4303    2.4459   -2.7984 H       1  UNL1        0.0000
     74 H          -0.3034   -4.7952   -0.6006 H       1  UNL1        0.0000
     75 H          -3.7357   -4.4068   -2.3523 H       1  UNL1        0.0000
     76 H          -3.0053   -4.7001   -3.9345 H       1  UNL1        0.0000
     77 H          -2.7115   -3.1684   -3.0848 H       1  UNL1        0.0000
     78 H          -2.6491   -6.5649   -1.3980 H       1  UNL1        0.0000
     79 H          -0.9245   -6.8575   -1.6520 H       1  UNL1        0.0000
     80 H          -2.0435   -6.8807   -3.0289 H       1  UNL1        0.0000
     81 H           4.4433   -0.4063   -0.5068 H       1  UNL1        0.0000
     82 H           4.1543   -3.5279   -2.7231 H       1  UNL1        0.0000
     83 H           4.7892   -2.6709   -4.1368 H       1  UNL1        0.0000
     84 H           3.1401   -2.3545   -3.5617 H       1  UNL1        0.0000
     85 H           5.1844    0.6902   -2.4909 H       1  UNL1        0.0000
     86 H           3.8348    0.1890   -3.5124 H       1  UNL1        0.0000
     87 H           5.4941   -0.2270   -3.9781 H       1  UNL1        0.0000
     88 H           0.1712    4.2773   -0.4110 H       1  UNL1        0.0000
     89 H           2.2207    2.8922   -3.3571 H       1  UNL1        0.0000
     90 H           3.3842    3.8642   -2.4562 H       1  UNL1        0.0000
     91 H           2.6355    4.5240   -3.9182 H       1  UNL1        0.0000
     92 H          -0.7963    5.0604   -2.4573 H       1  UNL1        0.0000
     93 H          -0.2863    3.7122   -3.4756 H       1  UNL1        0.0000
     94 H           0.2178    5.3635   -3.8816 H       1  UNL1        0.0000
     95 H          -3.9493    1.9348   -2.6832 H       1  UNL1        0.0000
     96 H          -0.7524   -4.7394   -2.9738 H       1  UNL1        0.0000
     97 H           5.7241   -1.7211   -2.0465 H       1  UNL1        0.0000
     98 H           1.6104    5.5034   -1.8780 H       1  UNL1        0.0000
     99 H           3.1424    2.3089    2.1715 H       1  UNL1        0.0000
    100 H           7.1844    3.3333    1.2007 H       1  UNL1        0.0000
    101 H           5.3361    1.6036    1.1284 H       1  UNL1        0.0000
    102 H           4.3215    5.5704    0.3166 H       1  UNL1        0.0000
    103 H           4.2273    6.4327    1.8449 H       1  UNL1        0.0000
    104 H           6.0378    4.9357    2.7696 H       1  UNL1        0.0000
    105 H           6.5725    5.7510    1.3031 H       1  UNL1        0.0000
    106 H           5.9941    3.7043   -0.0413 H       1  UNL1        0.0000
    107 H           5.4548    2.4140    2.6812 H       1  UNL1        0.0000
    108 H           3.2224    4.5706    2.9839 H       1  UNL1        0.0000
    109 H           1.3159   -3.3405    4.1283 H       1  UNL1        0.0000
    110 H           1.1219   -4.1902    1.7840 H       1  UNL1        0.0000
    111 H           4.9178   -4.4283    3.7784 H       1  UNL1        0.0000
    112 H           5.5696   -2.8019    3.5747 H       1  UNL1        0.0000
    113 H           3.2947   -1.8362    3.7213 H       1  UNL1        0.0000
    114 H           3.5642   -2.8855    5.1102 H       1  UNL1        0.0000
    115 H           2.3484   -4.7498    3.9104 H       1  UNL1        0.0000
    116 H           1.7800   -2.5639    1.8428 H       1  UNL1        0.0000
    117 H           5.3699   -4.2359    1.4784 H       1  UNL1        0.0000
    118 H           3.1989   -5.1722    1.1834 H       1  UNL1        0.0000
    119 H          -5.2537   -2.7993    2.9847 H       1  UNL1        0.0000
    120 H          -5.0944   -1.8905    1.4851 H       1  UNL1        0.0000
    121 H          -1.9651   -1.6177    4.4436 H       1  UNL1        0.0000
    122 H          -4.0794   -0.7089    3.4446 H       1  UNL1        0.0000
    123 H          -1.1838   -2.8435    2.4551 H       1  UNL1        0.0000
    124 H          -1.1941   -3.9235    3.8430 H       1  UNL1        0.0000
    125 H          -3.2809   -2.7636    4.6837 H       1  UNL1        0.0000
    126 H          -2.9009   -1.0223    2.1800 H       1  UNL1        0.0000
    127 H          -4.6358   -4.3991    1.3612 H       1  UNL1        0.0000
    128 H          -3.1109   -5.1274    3.0646 H       1  UNL1        0.0000
    129 H          -6.2354    3.9118    2.6302 H       1  UNL1        0.0000
    130 H          -5.7038    4.1426    0.9726 H       1  UNL1        0.0000
    131 H          -3.9627    5.8762    0.3767 H       1  UNL1        0.0000
    132 H          -4.5988    5.6861    3.3728 H       1  UNL1        0.0000
    133 H          -1.6622    5.1938    1.0491 H       1  UNL1        0.0000
    134 H          -2.1396    5.1794    2.7347 H       1  UNL1        0.0000
    135 H          -3.3585    6.9834    1.6041 H       1  UNL1        0.0000
    136 H          -5.6989    6.3084    2.1465 H       1  UNL1        0.0000
    137 H          -2.1190    2.9123    2.0596 H       1  UNL1        0.0000
    138 H          -4.1775    2.8711    3.2898 H       1  UNL1        0.0000
    139 O           2.3094   -3.6524   -0.9488 O.2     1  UNL1        0.0000
    140 O           5.4707   -1.3194    1.3859 O.2     1  UNL1        0.0000
    141 O          -3.4670   -2.4944   -0.5410 O.2     1  UNL1        0.0000
    142 O          -0.9513   -5.7528    1.4416 O.2     1  UNL1        0.0000
    143 O          -2.3300    3.2604   -0.7772 O.2     1  UNL1        0.0000
    144 O          -5.4096    0.9885    1.7346 O.2     1  UNL1        0.0000
    145 O           1.2119    5.4837    1.3719 O.2     1  UNL1        0.0000
    146 O           3.3383    1.9844   -0.6798 O.2     1  UNL1        0.0000
@<TRIPOS>BOND
     1     1     7    1
     2     2    12    1
     3     2    10    1
     4     2    14    1
     5     2     8    1
     6     2     1    1
     7     3    31    1
     8     3     9    1
     9     4    39    1
    10     4    13    1
    11     5    35    1
    12     5    11    1
    13     6    27    1
    14     6     7    1
    15     8     6    1
    16     9     1    1
    17    10     3    1
    18    11     1    1
    19    12     5    1
    20    13     1    1
    21    14     4    1
    22    15    19   am
    23    16    21   am
    24    16    22   am
    25    17    23   am
    26    17    24   am
    27    18    26   am
    28    18    25   am
    29    19   144    2
    30    19    66    1
    31    20    15   am
    32    20    65    1
    33    21    59    1
    34    22   142    2
    35    22    60    1
    36    23    54    1
    37    24   140    2
    38    24    53    1
    39    25   145    2
    40    25    45    1
    41    26    44    1
    42    27    67    1
    43    27    15    1
    44    28    30    1
    45    28    27    1
    46    29    69    1
    47    29    28    1
    48    30    71    1
    49    30    72    1
    50    31    74    1
    51    31    16    1
    52    32    34    1
    53    32    31    1
    54    33    75    1
    55    33    32    1
    56    34    79    1
    57    34    78    1
    58    35    81    1
    59    35    17    1
    60    36    97    1
    61    36    35    1
    62    37    82    1
    63    37    36    1
    64    38    85    1
    65    38    36    1
    66    39    88    1
    67    39    18    1
    68    40    98    1
    69    40    39    1
    70    41    90    1
    71    41    40    1
    72    42    92    1
    73    42    40    1
    74    43   107    1
    75    44    43    1
    76    44    45    1
    77    44    99    1
    78    45   108    1
    79    46    47    1
    80    46   103    1
    81    46    45    1
    82    47   104    1
    83    48   100    1
    84    48    43    1
    85    48    47    1
    86    49    52    1
    87    50   112    1
    88    50   111    1
    89    50    51    1
    90    51   114    1
    91    52   115    1
    92    52    51    1
    93    52   109    1
    94    53   117    1
    95    53    50    1
    96    54   118    1
    97    54    53    1
    98    54    49    1
    99    55   122    1
   100    55    58    1
   101    56    55    1
   102    56   119    1
   103    57   124    1
   104    57    58    1
   105    58   121    1
   106    58   125    1
   107    59   127    1
   108    59    56    1
   109    59    60    1
   110    60   128    1
   111    60    57    1
   112    61   132    1
   113    62    66    1
   114    62    61    1
   115    62   129    1
   116    63   134    1
   117    64   135    1
   118    64    63    1
   119    64    61    1
   120    65    63    1
   121    65   137    1
   122    65    66    1
   123    66   138    1
   124    68    29    1
   125    70    29    1
   126    73    30    1
   127    76    33    1
   128    77    33    1
   129    80    34    1
   130    83    37    1
   131    84    37    1
   132    86    38    1
   133    87    38    1
   134    89    41    1
   135    91    41    1
   136    93    42    1
   137    94    42    1
   138    95    28    1
   139    96    32    1
   140   101    43    1
   141   102    46    1
   142   105    47    1
   143   106    48    1
   144   110    49    1
   145   113    51    1
   146   116    49    1
   147   120    56    1
   148   123    57    1
   149   126    55    1
   150   130    62    1
   151   131    64    1
   152   133    63    1
   153   136    61    1
   154   139    23    2
   155   141    21    2
   156   143    20    2
   157   146    26    2
