@<TRIPOS>MOLECULE
RhRh_ACH4_12_sp
 138 153 0 0 0
SMALL
GASTEIGER

@<TRIPOS>ATOM
      1 Rh         -0.1373    0.1913   -0.9789 Rh      1  UNL1        0.0000
      2 Rh          0.3741   -0.8470    1.1114 Rh      1  UNL1        0.0000
      3 C           0.8254    2.0089    1.0382 C.3     1  UNL1        0.0000
      4 C          -2.3348    0.0698    0.8977 C.3     1  UNL1        0.0000
      5 C          -0.4912   -2.6740   -0.9385 C.3     1  UNL1        0.0000
      6 C           2.6116   -0.6145   -0.7278 C.3     1  UNL1        0.0000
      7 O           1.8389    0.0142   -1.5143 O.3     1  UNL1        0.0000
      8 O           2.2767   -1.1591    0.3712 O.3     1  UNL1        0.0000
      9 O          -0.4511   -1.6943   -1.7380 O.3     1  UNL1        0.0000
     10 O          -0.2754   -2.6251    0.3144 O.3     1  UNL1        0.0000
     11 O          -1.5435   -0.4705    1.7302 O.3     1  UNL1        0.0000
     12 O          -2.0715    0.3599   -0.3098 O.3     1  UNL1        0.0000
     13 O           0.9851    0.9987    1.7907 O.3     1  UNL1        0.0000
     14 O           0.2854    2.0041   -0.1121 O.3     1  UNL1        0.0000
     15 N           4.8257   -1.3657   -0.0593 N.am    1  UNL1        0.0000
     16 N          -2.0649   -4.5197   -0.9231 N.am    1  UNL1        0.0000
     17 N          -4.1963    1.5801    0.6464 N.am    1  UNL1        0.0000
     18 N           1.2755    4.3286    0.4676 N.am    1  UNL1        0.0000
     19 C           4.0769   -0.7436   -1.1753 C.3     1  UNL1        0.0000
     20 C           4.6529    0.6561   -1.5195 C.3     1  UNL1        0.0000
     21 C           6.0843    0.5558   -2.0515 C.3     1  UNL1        0.0000
     22 C           6.1551   -0.3151   -3.3106 C.3     1  UNL1        0.0000
     23 C           5.5331   -1.6932   -3.0611 C.3     1  UNL1        0.0000
     24 C           4.1200   -1.5857   -2.4790 C.3     1  UNL1        0.0000
     25 C           5.0179   -2.7555    0.1329 C.2     1  UNL1        0.0000
     26 C           5.5085   -2.9247    1.5273 C.ar    1  UNL1        0.0000
     27 C           5.9003   -4.0735    2.1979 C.ar    1  UNL1        0.0000
     28 C           6.2967   -3.9305    3.5327 C.ar    1  UNL1        0.0000
     29 C           6.2928   -2.6767    4.1590 C.ar    1  UNL1        0.0000
     30 C           5.8924   -1.5256    3.4705 C.ar    1  UNL1        0.0000
     31 C           5.5052   -1.6816    2.1481 C.ar    1  UNL1        0.0000
     32 C           5.0110   -0.6776    1.1713 C.2     1  UNL1        0.0000
     33 C          -0.7674   -4.0904   -1.5045 C.3     1  UNL1        0.0000
     34 C           0.4003   -4.9944   -1.0476 C.3     1  UNL1        0.0000
     35 C           1.7147   -4.5297   -1.6814 C.3     1  UNL1        0.0000
     36 C           1.6339   -4.5931   -3.2100 C.3     1  UNL1        0.0000
     37 C           0.4647   -3.7533   -3.7376 C.3     1  UNL1        0.0000
     38 C          -0.8648   -4.0955   -3.0441 C.3     1  UNL1        0.0000
     39 C          -3.2005   -3.6836   -1.0071 C.2     1  UNL1        0.0000
     40 C          -4.3188   -4.4146   -0.3593 C.ar    1  UNL1        0.0000
     41 C          -5.6470   -4.0540   -0.1895 C.ar    1  UNL1        0.0000
     42 C          -6.4751   -4.9627    0.4805 C.ar    1  UNL1        0.0000
     43 C          -5.9773   -6.1854    0.9493 C.ar    1  UNL1        0.0000
     44 C          -4.6367   -6.5427    0.7577 C.ar    1  UNL1        0.0000
     45 C          -3.8259   -5.6331    0.0970 C.ar    1  UNL1        0.0000
     46 C          -2.3821   -5.7351   -0.2703 C.2     1  UNL1        0.0000
     47 C          -3.7708    0.3614    1.3742 C.3     1  UNL1        0.0000
     48 C          -4.6168   -0.8950    1.0441 C.3     1  UNL1        0.0000
     49 C          -6.0366   -0.8539    1.6237 C.3     1  UNL1        0.0000
     50 C          -6.0488   -0.5411    3.1225 C.3     1  UNL1        0.0000
     51 C          -5.2519    0.7336    3.4134 C.3     1  UNL1        0.0000
     52 C          -3.8163    0.6091    2.8994 C.3     1  UNL1        0.0000
     53 C          -5.0590    1.6854   -0.4698 C.2     1  UNL1        0.0000
     54 C          -4.8649    3.0623   -1.0096 C.ar    1  UNL1        0.0000
     55 C          -5.4983    3.6954   -2.0675 C.ar    1  UNL1        0.0000
     56 C          -5.0896    5.0004   -2.3692 C.ar    1  UNL1        0.0000
     57 C          -4.0824    5.6331   -1.6287 C.ar    1  UNL1        0.0000
     58 C          -3.4469    4.9861   -0.5617 C.ar    1  UNL1        0.0000
     59 C          -3.8641    3.6938   -0.2764 C.ar    1  UNL1        0.0000
     60 C          -3.3784    2.7332    0.7425 C.2     1  UNL1        0.0000
     61 C           1.3430    3.3521    1.5845 C.3     1  UNL1        0.0000
     62 C           0.4722    3.7520    2.8042 C.3     1  UNL1        0.0000
     63 C           0.9944    4.9988    3.5274 C.3     1  UNL1        0.0000
     64 C           2.4646    4.8604    3.9361 C.3     1  UNL1        0.0000
     65 C           3.3284    4.4614    2.7354 C.3     1  UNL1        0.0000
     66 C           2.8053    3.1832    2.0775 C.3     1  UNL1        0.0000
     67 C           2.0262    4.1067   -0.7201 C.2     1  UNL1        0.0000
     68 C           1.4796    5.0259   -1.7506 C.ar    1  UNL1        0.0000
     69 C           1.8699    5.2284   -3.0656 C.ar    1  UNL1        0.0000
     70 C           1.1391    6.1595   -3.8130 C.ar    1  UNL1        0.0000
     71 C           0.0635    6.8572   -3.2470 C.ar    1  UNL1        0.0000
     72 C          -0.3166    6.6440   -1.9170 C.ar    1  UNL1        0.0000
     73 C           0.4104    5.7132   -1.1904 C.ar    1  UNL1        0.0000
     74 C           0.2383    5.2522    0.2149 C.2     1  UNL1        0.0000
     75 H           3.9954    1.0789   -2.2831 H       1  UNL1        0.0000
     76 H           4.5955    1.3146   -0.6588 H       1  UNL1        0.0000
     77 H           6.4568    1.5646   -2.2604 H       1  UNL1        0.0000
     78 H           6.7370    0.1371   -1.2746 H       1  UNL1        0.0000
     79 H           7.1920   -0.4216   -3.6495 H       1  UNL1        0.0000
     80 H           5.6075    0.1866   -4.1204 H       1  UNL1        0.0000
     81 H           5.4849   -2.2669   -3.9937 H       1  UNL1        0.0000
     82 H           6.1625   -2.2719   -2.3773 H       1  UNL1        0.0000
     83 H           3.7019   -2.5752   -2.3167 H       1  UNL1        0.0000
     84 H           3.4683   -1.0558   -3.1806 H       1  UNL1        0.0000
     85 H           6.6091   -4.8042    4.0958 H       1  UNL1        0.0000
     86 H           6.6026   -2.6006    5.1965 H       1  UNL1        0.0000
     87 H           5.8782   -0.5494    3.9428 H       1  UNL1        0.0000
     88 H           0.4620   -4.9852    0.0410 H       1  UNL1        0.0000
     89 H           0.1880   -6.0195   -1.3532 H       1  UNL1        0.0000
     90 H           1.9471   -3.5094   -1.3550 H       1  UNL1        0.0000
     91 H           2.5360   -5.1498   -1.3113 H       1  UNL1        0.0000
     92 H           1.5027   -5.6413   -3.5126 H       1  UNL1        0.0000
     93 H           2.5740   -4.2525   -3.6583 H       1  UNL1        0.0000
     94 H           0.3449   -3.9011   -4.8169 H       1  UNL1        0.0000
     95 H           0.6817   -2.6926   -3.5843 H       1  UNL1        0.0000
     96 H          -1.1785   -5.1079   -3.3270 H       1  UNL1        0.0000
     97 H          -1.6467   -3.4019   -3.3585 H       1  UNL1        0.0000
     98 H          -6.0208   -3.1081   -0.5643 H       1  UNL1        0.0000
     99 H          -7.5208   -4.7183    0.6377 H       1  UNL1        0.0000
    100 H          -6.6451   -6.8679    1.4653 H       1  UNL1        0.0000
    101 H          -4.0686   -1.7300    1.4971 H       1  UNL1        0.0000
    102 H          -4.6292   -1.0645   -0.0312 H       1  UNL1        0.0000
    103 H          -6.5139   -1.8223    1.4367 H       1  UNL1        0.0000
    104 H          -6.6218   -0.1072    1.0807 H       1  UNL1        0.0000
    105 H          -7.0806   -0.4432    3.4789 H       1  UNL1        0.0000
    106 H          -5.5998   -1.3765    3.6778 H       1  UNL1        0.0000
    107 H          -5.2324    0.9409    4.4889 H       1  UNL1        0.0000
    108 H          -5.7417    1.5931    2.9367 H       1  UNL1        0.0000
    109 H          -3.2240    1.4895    3.1445 H       1  UNL1        0.0000
    110 H          -3.3277   -0.2473    3.3726 H       1  UNL1        0.0000
    111 H          -5.5577    5.5312   -3.1924 H       1  UNL1        0.0000
    112 H          -3.7893    6.6449   -1.8915 H       1  UNL1        0.0000
    113 H          -2.6601    5.4577    0.0175 H       1  UNL1        0.0000
    114 H           0.5253    2.8894    3.4766 H       1  UNL1        0.0000
    115 H          -0.5667    3.8740    2.5091 H       1  UNL1        0.0000
    116 H           0.3670    5.1767    4.4082 H       1  UNL1        0.0000
    117 H           0.8675    5.8720    2.8803 H       1  UNL1        0.0000
    118 H           2.8257    5.7960    4.3788 H       1  UNL1        0.0000
    119 H           2.5567    4.0872    4.7114 H       1  UNL1        0.0000
    120 H           3.3396    5.2768    1.9999 H       1  UNL1        0.0000
    121 H           4.3682    4.3033    3.0421 H       1  UNL1        0.0000
    122 H           3.4478    2.8632    1.2618 H       1  UNL1        0.0000
    123 H           2.7911    2.3682    2.8056 H       1  UNL1        0.0000
    124 H           2.7048    4.6805   -3.4885 H       1  UNL1        0.0000
    125 H           1.4073    6.3460   -4.8480 H       1  UNL1        0.0000
    126 H          -0.4823    7.5734   -3.8531 H       1  UNL1        0.0000
    127 O           4.7939    0.4970    1.3854 O.2     1  UNL1        0.0000
    128 O           4.8314   -3.6458   -0.6729 O.2     1  UNL1        0.0000
    129 O          -3.2197   -2.5768   -1.5084 O.2     1  UNL1        0.0000
    130 O          -1.6515   -6.6810   -0.0629 O.2     1  UNL1        0.0000
    131 O          -5.8161    0.8415   -0.9036 O.2     1  UNL1        0.0000
    132 O          -2.4377    2.8540    1.5027 O.2     1  UNL1        0.0000
    133 O          -0.6282    5.6272    0.9822 O.2     1  UNL1        0.0000
    134 O           2.9315    3.3121   -0.8628 O.2     1  UNL1        0.0000
    135 H           5.8911   -5.0376    1.7014 H       1  UNL1        0.0000
    136 H          -4.2394   -7.4894    1.1074 H       1  UNL1        0.0000
    137 H          -6.2717    3.1899   -2.6355 H       1  UNL1        0.0000
    138 H          -1.1439    7.1803   -1.4655 H       1  UNL1        0.0000
@<TRIPOS>BOND
     1     1    12    1
     2     1    14    1
     3     1     2    1
     4     2    11    1
     5     2    13    1
     6     3    61    1
     7     3    13    1
     8     4    47    1
     9     4    11    1
    10     5    10    1
    11     6     8    1
    12     7     1    1
    13     7     6    1
    14     8     2    1
    15     9     1    1
    16     9     5    1
    17    10     2    1
    18    12     4    1
    19    14     3    1
    20    15    25   am
    21    15    32   am
    22    16    46   am
    23    17    60   am
    24    17    47    1
    25    18    61    1
    26    19     6    1
    27    19    15    1
    28    20    19    1
    29    20    76    1
    30    21    20    1
    31    21    78    1
    32    22    23    1
    33    22    21    1
    34    23    24    1
    35    23    82    1
    36    24    83    1
    37    24    19    1
    38    25    26    1
    39    26    31   ar
    40    26    27   ar
    41    27    28   ar
    42    28    85    1
    43    28    29   ar
    44    29    86    1
    45    30    87    1
    46    30    29   ar
    47    31    30   ar
    48    32   127    2
    49    32    31    1
    50    33    34    1
    51    33     5    1
    52    33    16    1
    53    34    88    1
    54    35    90    1
    55    35    91    1
    56    35    34    1
    57    36    35    1
    58    37    95    1
    59    37    36    1
    60    37    38    1
    61    38    33    1
    62    39    16   am
    63    39    40    1
    64    40    41   ar
    65    40    45   ar
    66    41    42   ar
    67    42    99    1
    68    42    43   ar
    69    43   100    1
    70    44    43   ar
    71    44   136    1
    72    45    44   ar
    73    46   130    2
    74    46    45    1
    75    47    52    1
    76    48    47    1
    77    48   101    1
    78    48    49    1
    79    49    50    1
    80    50    51    1
    81    50   105    1
    82    50   106    1
    83    51   107    1
    84    52   109    1
    85    52   110    1
    86    52    51    1
    87    53    17   am
    88    54    53    1
    89    54    59   ar
    90    55    54   ar
    91    56    55   ar
    92    56    57   ar
    93    57    58   ar
    94    58    59   ar
    95    58   113    1
    96    59    60    1
    97    60   132    2
    98    61    66    1
    99    61    62    1
   100    62   114    1
   101    62    63    1
   102    63    64    1
   103    63   116    1
   104    64   118    1
   105    64   119    1
   106    65   121    1
   107    65    64    1
   108    66    65    1
   109    66   123    1
   110    67    18   am
   111    68    73   ar
   112    68    67    1
   113    69    68   ar
   114    70    71   ar
   115    70    69   ar
   116    71    72   ar
   117    72   138    1
   118    72    73   ar
   119    73    74    1
   120    74    18   am
   121    74   133    2
   122    75    20    1
   123    77    21    1
   124    79    22    1
   125    80    22    1
   126    81    23    1
   127    84    24    1
   128    89    34    1
   129    92    36    1
   130    93    36    1
   131    94    37    1
   132    96    38    1
   133    97    38    1
   134    98    41    1
   135   102    48    1
   136   103    49    1
   137   104    49    1
   138   108    51    1
   139   111    56    1
   140   112    57    1
   141   115    62    1
   142   117    63    1
   143   120    65    1
   144   122    66    1
   145   124    69    1
   146   125    70    1
   147   126    71    1
   148   128    25    2
   149   129    39    2
   150   131    53    2
   151   134    67    2
   152   135    27    1
   153   137    55    1
