@<TRIPOS>MOLECULE
RhRh_tri-pFPh-O2C4_3_sp
 150 165 0 0 0
SMALL
GASTEIGER

@<TRIPOS>ATOM
      1 Rh         -0.1541    0.0643   -1.2029 Rh      1  UNL1        0.0000
      2 Rh         -0.1443    0.0810    1.1813 Rh      1  UNL1        0.0000
      3 C          -2.7468    0.5038   -0.0027 C.3     1  UNL1        0.0000
      4 C          -0.5381   -2.5358   -0.0232 C.3     1  UNL1        0.0000
      5 C           2.4588   -0.4015    0.0160 C.3     1  UNL1        0.0000
      6 C           0.3587    2.6624   -0.0256 C.3     1  UNL1        0.0000
      7 O           0.1081    2.0983   -1.1388 O.3     1  UNL1        0.0000
      8 O           0.3122    2.0896    1.1049 O.3     1  UNL1        0.0000
      9 O           1.9038   -0.2193   -1.1122 O.3     1  UNL1        0.0000
     10 O           1.8533   -0.3531    1.1338 O.3     1  UNL1        0.0000
     11 O          -0.4213   -1.9542   -1.1484 O.3     1  UNL1        0.0000
     12 O          -0.5499   -1.9454    1.0998 O.3     1  UNL1        0.0000
     13 O          -2.1989    0.3003   -1.1318 O.3     1  UNL1        0.0000
     14 O          -2.1383    0.5407    1.1127 O.3     1  UNL1        0.0000
     15 F           6.4554    4.4357    0.7944 F       1  UNL1        0.0000
     16 F           4.9696   -3.9284    4.6233 F       1  UNL1        0.0000
     17 F           6.2542   -3.0726   -4.5096 F       1  UNL1        0.0000
     18 F           1.1255    6.7956    4.8957 F       1  UNL1        0.0000
     19 F          -3.4769    5.8992   -3.4881 F       1  UNL1        0.0000
     20 F           5.9032    4.7752   -2.4259 F       1  UNL1        0.0000
     21 F          -5.9513    3.7988    4.4333 F       1  UNL1        0.0000
     22 F          -5.4411   -4.9530    0.5737 F       1  UNL1        0.0000
     23 F          -6.9004    3.5195   -4.0245 F       1  UNL1        0.0000
     24 F          -2.7395   -6.1292    4.7751 F       1  UNL1        0.0000
     25 F          -3.7599   -5.8585   -4.4305 F       1  UNL1        0.0000
     26 F           4.7614   -5.7420   -1.0638 F       1  UNL1        0.0000
     27 C           0.7359    4.1655   -0.1218 C.3     1  UNL1        0.0000
     28 C           0.7646    4.8466    1.2586 C.ar    1  UNL1        0.0000
     29 C           0.1830    6.1025    1.4636 C.ar    1  UNL1        0.0000
     30 C           0.2979    6.7681    2.6858 C.ar    1  UNL1        0.0000
     31 C           1.0104    6.1648    3.7102 C.ar    1  UNL1        0.0000
     32 C           1.6177    4.9253    3.5408 C.ar    1  UNL1        0.0000
     33 C           1.4963    4.2812    2.3145 C.ar    1  UNL1        0.0000
     34 C           2.1434    4.2880   -0.7638 C.ar    1  UNL1        0.0000
     35 C           2.7069    3.2945   -1.5769 C.ar    1  UNL1        0.0000
     36 C           3.9655    3.4606   -2.1498 C.ar    1  UNL1        0.0000
     37 C           4.6661    4.6317   -1.9078 C.ar    1  UNL1        0.0000
     38 C           4.1371    5.6458   -1.1219 C.ar    1  UNL1        0.0000
     39 C           2.8779    5.4643   -0.5554 C.ar    1  UNL1        0.0000
     40 C          -0.3615    4.7521   -1.0317 C.ar    1  UNL1        0.0000
     41 C          -1.6857    4.7328   -0.5696 C.ar    1  UNL1        0.0000
     42 C          -2.7428    5.1310   -1.3791 C.ar    1  UNL1        0.0000
     43 C          -2.4558    5.5524   -2.6734 C.ar    1  UNL1        0.0000
     44 C          -1.1577    5.6061   -3.1578 C.ar    1  UNL1        0.0000
     45 C          -0.1100    5.2021   -2.3269 C.ar    1  UNL1        0.0000
     46 C           3.9944   -0.6415    0.1025 C.3     1  UNL1        0.0000
     47 C           4.2555   -1.4951    1.3586 C.ar    1  UNL1        0.0000
     48 C           5.2523   -1.1727    2.2803 C.ar    1  UNL1        0.0000
     49 C           5.5026   -1.9897    3.3858 C.ar    1  UNL1        0.0000
     50 C           4.7403   -3.1349    3.5562 C.ar    1  UNL1        0.0000
     51 C           3.7457   -3.4925    2.6513 C.ar    1  UNL1        0.0000
     52 C           3.5150   -2.6702    1.5554 C.ar    1  UNL1        0.0000
     53 C           4.6447    0.7587    0.2545 C.ar    1  UNL1        0.0000
     54 C           4.0908    1.7134    1.1199 C.ar    1  UNL1        0.0000
     55 C           4.6999    2.9496    1.3142 C.ar    1  UNL1        0.0000
     56 C           5.8797    3.2264    0.6385 C.ar    1  UNL1        0.0000
     57 C           6.4713    2.3000   -0.2071 C.ar    1  UNL1        0.0000
     58 C           5.8468    1.0674   -0.3932 C.ar    1  UNL1        0.0000
     59 C           4.5462   -1.3447   -1.1535 C.ar    1  UNL1        0.0000
     60 C           4.2790   -0.8468   -2.4397 C.ar    1  UNL1        0.0000
     61 C           4.8401   -1.4304   -3.5718 C.ar    1  UNL1        0.0000
     62 C           5.7011   -2.5118   -3.4151 C.ar    1  UNL1        0.0000
     63 C           6.0094   -3.0165   -2.1616 C.ar    1  UNL1        0.0000
     64 C           5.4264   -2.4267   -1.0391 C.ar    1  UNL1        0.0000
     65 C          -0.5949   -4.0879   -0.0701 C.3     1  UNL1        0.0000
     66 C          -1.1829   -4.6427    1.2379 C.ar    1  UNL1        0.0000
     67 C          -0.5809   -4.3479    2.4743 C.ar    1  UNL1        0.0000
     68 C          -1.0989   -4.8432    3.6660 C.ar    1  UNL1        0.0000
     69 C          -2.2342   -5.6472    3.6213 C.ar    1  UNL1        0.0000
     70 C          -2.8532   -5.9638    2.4227 C.ar    1  UNL1        0.0000
     71 C          -2.3183   -5.4575    1.2362 C.ar    1  UNL1        0.0000
     72 C          -1.4315   -4.5307   -1.2834 C.ar    1  UNL1        0.0000
     73 C          -2.5358   -3.7890   -1.7179 C.ar    1  UNL1        0.0000
     74 C          -3.3202   -4.2277   -2.7817 C.ar    1  UNL1        0.0000
     75 C          -3.0030   -5.4302   -3.3991 C.ar    1  UNL1        0.0000
     76 C          -1.9286   -6.2034   -2.9803 C.ar    1  UNL1        0.0000
     77 C          -1.1471   -5.7427   -1.9224 C.ar    1  UNL1        0.0000
     78 C           0.8781   -4.5358   -0.2921 C.ar    1  UNL1        0.0000
     79 C           1.4974   -5.5047    0.5042 C.ar    1  UNL1        0.0000
     80 C           2.8060   -5.9204    0.2450 C.ar    1  UNL1        0.0000
     81 C           3.4876   -5.3637   -0.8262 C.ar    1  UNL1        0.0000
     82 C           2.8919   -4.4264   -1.6614 C.ar    1  UNL1        0.0000
     83 C           1.5913   -4.0218   -1.3885 C.ar    1  UNL1        0.0000
     84 C          -4.2877    0.5879    0.0653 C.3     1  UNL1        0.0000
     85 C          -4.9312    1.3113   -1.1295 C.ar    1  UNL1        0.0000
     86 C          -6.3315    1.2900   -1.2305 C.ar    1  UNL1        0.0000
     87 C          -7.0023    2.0158   -2.2083 C.ar    1  UNL1        0.0000
     88 C          -6.2580    2.8013   -3.0812 C.ar    1  UNL1        0.0000
     89 C          -4.8764    2.8738   -2.9954 C.ar    1  UNL1        0.0000
     90 C          -4.2181    2.1233   -2.0185 C.ar    1  UNL1        0.0000
     91 C          -4.6639   -0.9097    0.1792 C.ar    1  UNL1        0.0000
     92 C          -4.2405   -1.6190    1.3159 C.ar    1  UNL1        0.0000
     93 C          -4.5052   -2.9754    1.4637 C.ar    1  UNL1        0.0000
     94 C          -5.2012   -3.6288    0.4545 C.ar    1  UNL1        0.0000
     95 C          -5.6340   -2.9645   -0.6835 C.ar    1  UNL1        0.0000
     96 C          -5.3457   -1.6054   -0.8241 C.ar    1  UNL1        0.0000
     97 C          -4.7112    1.3941    1.3087 C.ar    1  UNL1        0.0000
     98 C          -4.1350    2.6532    1.5203 C.ar    1  UNL1        0.0000
     99 C          -4.5380    3.4684    2.5703 C.ar    1  UNL1        0.0000
    100 C          -5.5499    3.0153    3.4116 C.ar    1  UNL1        0.0000
    101 C          -6.1570    1.7832    3.2225 C.ar    1  UNL1        0.0000
    102 C          -5.7306    0.9760    2.1652 C.ar    1  UNL1        0.0000
    103 H          -0.3625    6.5828    0.6613 H       1  UNL1        0.0000
    104 H          -0.1537    7.7408    2.8434 H       1  UNL1        0.0000
    105 H           2.1746    4.4833    4.3594 H       1  UNL1        0.0000
    106 H           1.9708    3.3213    2.1791 H       1  UNL1        0.0000
    107 H           2.1761    2.3739   -1.7671 H       1  UNL1        0.0000
    108 H           4.4157    2.6789   -2.7495 H       1  UNL1        0.0000
    109 H           4.7152    6.5442   -0.9412 H       1  UNL1        0.0000
    110 H           2.4702    6.2481    0.0710 H       1  UNL1        0.0000
    111 H          -1.8856    4.3986    0.4431 H       1  UNL1        0.0000
    112 H          -3.7695    5.0959   -1.0353 H       1  UNL1        0.0000
    113 H          -0.9771    5.9466   -4.1710 H       1  UNL1        0.0000
    114 H           0.9048    5.2191   -2.7042 H       1  UNL1        0.0000
    115 H           5.8451   -0.2767    2.1450 H       1  UNL1        0.0000
    116 H           6.2739   -1.7444    4.1069 H       1  UNL1        0.0000
    117 H           3.1734   -4.3996    2.8031 H       1  UNL1        0.0000
    118 H           2.7465   -2.9512    0.8462 H       1  UNL1        0.0000
    119 H           4.2626    3.7042    1.9563 H       1  UNL1        0.0000
    120 H           7.3886    2.5546   -0.7249 H       1  UNL1        0.0000
    121 H           6.3060    0.3433   -1.0534 H       1  UNL1        0.0000
    122 H           3.6295    0.0085   -2.5579 H       1  UNL1        0.0000
    123 H           4.6314   -1.0504   -4.5656 H       1  UNL1        0.0000
    124 H           5.6645   -2.8297   -0.0643 H       1  UNL1        0.0000
    125 H           0.3029   -3.7240    2.5074 H       1  UNL1        0.0000
    126 H          -0.6367   -4.6184    4.6205 H       1  UNL1        0.0000
    127 H          -3.7450   -6.5791    2.4165 H       1  UNL1        0.0000
    128 H          -2.8188   -5.6923    0.3071 H       1  UNL1        0.0000
    129 H          -2.7944   -2.8538   -1.2381 H       1  UNL1        0.0000
    130 H          -4.1665   -3.6489   -3.1303 H       1  UNL1        0.0000
    131 H          -1.7114   -7.1405   -3.4799 H       1  UNL1        0.0000
    132 H          -0.3034   -6.3378   -1.5935 H       1  UNL1        0.0000
    133 H           0.9634   -5.9487    1.3339 H       1  UNL1        0.0000
    134 H           3.2946   -6.6624    0.8661 H       1  UNL1        0.0000
    135 H           3.4426   -4.0161   -2.4975 H       1  UNL1        0.0000
    136 H           1.1205   -3.2969   -2.0381 H       1  UNL1        0.0000
    137 H          -6.9099    0.7078   -0.5218 H       1  UNL1        0.0000
    138 H          -8.0831    1.9954   -2.2894 H       1  UNL1        0.0000
    139 H          -3.1415    2.1928   -1.9567 H       1  UNL1        0.0000
    140 H          -3.6893   -1.1019    2.0913 H       1  UNL1        0.0000
    141 H          -4.1654   -3.5247    2.3319 H       1  UNL1        0.0000
    142 H          -6.1647   -3.5119   -1.4534 H       1  UNL1        0.0000
    143 H          -5.6576   -1.0914   -1.7241 H       1  UNL1        0.0000
    144 H          -3.3585    2.9990    0.8494 H       1  UNL1        0.0000
    145 H          -4.0866    4.4387    2.7444 H       1  UNL1        0.0000
    146 H          -6.2010    0.0112    2.0188 H       1  UNL1        0.0000
    147 H           3.1760    1.4841    1.6524 H       1  UNL1        0.0000
    148 H          -4.3329    3.5289   -3.6652 H       1  UNL1        0.0000
    149 H          -6.9464    1.4650    3.8936 H       1  UNL1        0.0000
    150 H           6.6733   -3.8672   -2.0674 H       1  UNL1        0.0000
@<TRIPOS>BOND
     1     1    11    1
     2     1     7    1
     3     1    13    1
     4     1     9    1
     5     1     2    1
     6     3    84    1
     7     3    14    1
     8     4    12    1
     9     5    46    1
    10     5    10    1
    11     6     8    1
    12     7     6    1
    13     8     2    1
    14     9     5    1
    15    10     2    1
    16    11     4    1
    17    12     2    1
    18    13     3    1
    19    14     2    1
    20    17    62    1
    21    19    43    1
    22    20    37    1
    23    23    88    1
    24    25    75    1
    25    26    81    1
    26    27     6    1
    27    27    28    1
    28    28    29   ar
    29    28    33   ar
    30    29    30   ar
    31    30   104    1
    32    30    31   ar
    33    31    18    1
    34    32    31   ar
    35    32   105    1
    36    33    32   ar
    37    34    39   ar
    38    34    27    1
    39    35    34   ar
    40    36    37   ar
    41    36    35   ar
    42    37    38   ar
    43    38   109    1
    44    38    39   ar
    45    39   110    1
    46    40    41   ar
    47    40    27    1
    48    41   111    1
    49    42   112    1
    50    42    41   ar
    51    43    42   ar
    52    44    43   ar
    53    44    45   ar
    54    45    40   ar
    55    46    53    1
    56    46    47    1
    57    47    52   ar
    58    47    48   ar
    59    48    49   ar
    60    49    50   ar
    61    49   116    1
    62    50    16    1
    63    51   117    1
    64    51    50   ar
    65    52    51   ar
    66    53    54   ar
    67    54    55   ar
    68    54   147    1
    69    55   119    1
    70    56    15    1
    71    56    55   ar
    72    57    56   ar
    73    58    57   ar
    74    58    53   ar
    75    59    64   ar
    76    59    46    1
    77    60    59   ar
    78    61    62   ar
    79    61    60   ar
    80    62    63   ar
    81    63   150    1
    82    63    64   ar
    83    64   124    1
    84    65     4    1
    85    65    66    1
    86    66    67   ar
    87    67   125    1
    88    67    68   ar
    89    68   126    1
    90    69    68   ar
    91    69    24    1
    92    70    69   ar
    93    71    66   ar
    94    71    70   ar
    95    72    65    1
    96    73    72   ar
    97    73   129    1
    98    74    73   ar
    99    75    76   ar
   100    75    74   ar
   101    76    77   ar
   102    77   132    1
   103    77    72   ar
   104    78    65    1
   105    78    79   ar
   106    79   133    1
   107    80    79   ar
   108    80   134    1
   109    81    80   ar
   110    82    83   ar
   111    82    81   ar
   112    83    78   ar
   113    84    91    1
   114    84    97    1
   115    85    84    1
   116    86    85   ar
   117    86   137    1
   118    87    86   ar
   119    88    89   ar
   120    88    87   ar
   121    89    90   ar
   122    90   139    1
   123    90    85   ar
   124    91    92   ar
   125    92    93   ar
   126    92   140    1
   127    93   141    1
   128    94    22    1
   129    94    93   ar
   130    95    94   ar
   131    96    95   ar
   132    96    91   ar
   133    97    98   ar
   134    97   102   ar
   135    98    99   ar
   136    99   145    1
   137    99   100   ar
   138   100    21    1
   139   101   100   ar
   140   101   149    1
   141   102   101   ar
   142   103    29    1
   143   106    33    1
   144   107    35    1
   145   108    36    1
   146   113    44    1
   147   114    45    1
   148   115    48    1
   149   118    52    1
   150   120    57    1
   151   121    58    1
   152   122    60    1
   153   123    61    1
   154   127    70    1
   155   128    71    1
   156   130    74    1
   157   131    76    1
   158   135    82    1
   159   136    83    1
   160   138    87    1
   161   142    95    1
   162   143    96    1
   163   144    98    1
   164   146   102    1
   165   148    89    1
