@<TRIPOS>MOLECULE
RhRh_S-TCPTTL4_fromcarbene_20kcal_13_sp
 134 145 0 0 0
SMALL
GASTEIGER

@<TRIPOS>ATOM
      1 Rh         -1.2833   -1.0646   -1.6288 Rh      1  UNL1        0.0000
      2 Rh         -0.1926   -0.1929    0.3139 Rh      1  UNL1        0.0000
      3 C           1.3428   -2.1663   -1.0978 C.3     1  UNL1        0.0000
      4 C          -2.7573    1.0195   -0.3065 C.3     1  UNL1        0.0000
      5 C           0.4185    1.2088   -2.1356 C.3     1  UNL1        0.0000
      6 C          -1.9502   -2.3992    0.8456 C.3     1  UNL1        0.0000
      7 O          -2.8524    0.2134   -1.2813 O.3     1  UNL1        0.0000
      8 O          -1.8461    1.0152    0.5768 O.3     1  UNL1        0.0000
      9 O          -2.1891   -2.4358   -0.4028 O.3     1  UNL1        0.0000
     10 O          -1.1000   -1.6623    1.4296 O.3     1  UNL1        0.0000
     11 O           0.3628   -2.2828   -1.8888 O.3     1  UNL1        0.0000
     12 O           1.3976   -1.3993   -0.0823 O.3     1  UNL1        0.0000
     13 O          -0.3809    0.4282   -2.7304 O.3     1  UNL1        0.0000
     14 O           0.6888    1.2017   -0.8922 O.3     1  UNL1        0.0000
     15 N          -3.1744    3.2910    0.3779 N.am    1  UNL1        0.0000
     16 N          -4.2004   -3.1602    1.2543 N.am    1  UNL1        0.0000
     17 N           3.3460   -3.0971   -0.1186 N.am    1  UNL1        0.0000
     18 N           2.6091    2.0029   -2.7535 N.am    1  UNL1        0.0000
     19 CL         -3.6009    5.9489    4.1314 Cl      1  UNL1        0.0000
     20 CL         -1.0390    7.7923    4.2292 Cl      1  UNL1        0.0000
     21 CL          1.1904    7.5075    2.0455 Cl      1  UNL1        0.0000
     22 CL          0.8877    5.3768   -0.2624 Cl      1  UNL1        0.0000
     23 CL         -7.2142    0.2702    1.9652 Cl      1  UNL1        0.0000
     24 CL         -9.5279   -0.0903   -0.1558 Cl      1  UNL1        0.0000
     25 CL         -9.4342   -2.4668   -2.1962 Cl      1  UNL1        0.0000
     26 CL         -7.0345   -4.5112   -2.1458 Cl      1  UNL1        0.0000
     27 CL          7.0925   -1.1333    1.7195 Cl      1  UNL1        0.0000
     28 CL          7.0922   -1.8701    4.7947 Cl      1  UNL1        0.0000
     29 CL          4.7721   -3.5993    5.9976 Cl      1  UNL1        0.0000
     30 CL          2.4206   -4.6094    4.1507 Cl      1  UNL1        0.0000
     31 CL          5.5772   -1.3762   -3.7269 Cl      1  UNL1        0.0000
     32 CL          8.2750   -0.6809   -2.2441 Cl      1  UNL1        0.0000
     33 CL          8.5475    2.0046   -0.6529 Cl      1  UNL1        0.0000
     34 CL          6.1381    4.0474   -0.5674 Cl      1  UNL1        0.0000
     35 C          -3.8429    2.0931   -0.1285 C.3     1  UNL1        0.0000
     36 C          -3.5535    3.8961    1.5871 C.2     1  UNL1        0.0000
     37 C          -2.4962    4.9182    1.8717 C.ar    1  UNL1        0.0000
     38 C          -2.3778    5.8236    2.9144 C.ar    1  UNL1        0.0000
     39 C          -1.2255    6.6402    2.9513 C.ar    1  UNL1        0.0000
     40 C          -0.2260    6.5165    1.9661 C.ar    1  UNL1        0.0000
     41 C          -0.3626    5.5855    0.9117 C.ar    1  UNL1        0.0000
     42 C          -1.5149    4.8137    0.8815 C.ar    1  UNL1        0.0000
     43 C          -1.9487    3.7697   -0.0959 C.2     1  UNL1        0.0000
     44 C          -4.8066    2.3672   -1.3241 C.3     1  UNL1        0.0000
     45 C          -5.7117    3.5505   -0.9313 C.3     1  UNL1        0.0000
     46 C          -4.0647    2.7064   -2.6256 C.3     1  UNL1        0.0000
     47 C          -5.7034    1.1330   -1.5330 C.3     1  UNL1        0.0000
     48 C          -2.8154   -3.2894    1.7351 C.3     1  UNL1        0.0000
     49 C          -4.8902   -1.9922    1.6395 C.2     1  UNL1        0.0000
     50 C          -6.1346   -1.9480    0.8212 C.ar    1  UNL1        0.0000
     51 C          -7.1844   -1.0430    0.8373 C.ar    1  UNL1        0.0000
     52 C          -8.2133   -1.2143   -0.1124 C.ar    1  UNL1        0.0000
     53 C          -8.1666   -2.2808   -1.0327 C.ar    1  UNL1        0.0000
     54 C          -7.0931   -3.1995   -1.0198 C.ar    1  UNL1        0.0000
     55 C          -6.0870   -3.0074   -0.0842 C.ar    1  UNL1        0.0000
     56 C          -4.8278   -3.7903    0.1646 C.2     1  UNL1        0.0000
     57 C          -2.2255   -4.7186    1.9649 C.3     1  UNL1        0.0000
     58 C          -3.3269   -5.6349    2.5202 C.3     1  UNL1        0.0000
     59 C          -1.5930   -5.3255    0.7005 C.3     1  UNL1        0.0000
     60 C          -1.1201   -4.5534    3.0283 C.3     1  UNL1        0.0000
     61 C           2.6402   -2.9236   -1.3896 C.3     1  UNL1        0.0000
     62 C           4.5057   -2.3649    0.1627 C.2     1  UNL1        0.0000
     63 C           4.7821   -2.5650    1.6153 C.ar    1  UNL1        0.0000
     64 C           5.8247   -2.0970    2.3998 C.ar    1  UNL1        0.0000
     65 C           5.8129   -2.4282    3.7723 C.ar    1  UNL1        0.0000
     66 C           4.7680   -3.2051    4.3129 C.ar    1  UNL1        0.0000
     67 C           3.7119   -3.6642    3.4941 C.ar    1  UNL1        0.0000
     68 C           3.7430   -3.3300    2.1489 C.ar    1  UNL1        0.0000
     69 C           2.7747   -3.6325    1.0448 C.2     1  UNL1        0.0000
     70 C           2.5804   -4.1890   -2.2963 C.3     1  UNL1        0.0000
     71 C           1.5367   -5.2205   -1.8405 C.3     1  UNL1        0.0000
     72 C           2.2643   -3.7331   -3.7356 C.3     1  UNL1        0.0000
     73 C           3.9810   -4.8294   -2.2839 C.3     1  UNL1        0.0000
     74 C           1.1795    2.2927   -2.9095 C.3     1  UNL1        0.0000
     75 C           3.2104    0.7655   -3.0040 C.2     1  UNL1        0.0000
     76 C           4.6466    0.9260   -2.6235 C.ar    1  UNL1        0.0000
     77 C           5.7173    0.0615   -2.7763 C.ar    1  UNL1        0.0000
     78 C           6.9349    0.4067   -2.1536 C.ar    1  UNL1        0.0000
     79 C           7.0582    1.6190   -1.4477 C.ar    1  UNL1        0.0000
     80 C           5.9799    2.5296   -1.3834 C.ar    1  UNL1        0.0000
     81 C           4.7842    2.1580   -1.9782 C.ar    1  UNL1        0.0000
     82 C           3.4790    2.8845   -2.0869 C.2     1  UNL1        0.0000
     83 C           0.7561    2.6229   -4.3659 C.3     1  UNL1        0.0000
     84 C           1.6151    3.8152   -4.8286 C.3     1  UNL1        0.0000
     85 C           0.9422    1.4552   -5.3477 C.3     1  UNL1        0.0000
     86 C          -0.7211    3.0565   -4.3440 C.3     1  UNL1        0.0000
     87 H          -4.4586    1.7516    0.7137 H       1  UNL1        0.0000
     88 H          -5.1434    4.4812   -0.8475 H       1  UNL1        0.0000
     89 H          -6.2160    3.3724    0.0229 H       1  UNL1        0.0000
     90 H          -6.4754    3.6965   -1.7008 H       1  UNL1        0.0000
     91 H          -4.7961    2.8978   -3.4174 H       1  UNL1        0.0000
     92 H          -3.4211    1.8854   -2.9423 H       1  UNL1        0.0000
     93 H          -3.4451    3.5984   -2.5167 H       1  UNL1        0.0000
     94 H          -6.4053    1.3251   -2.3501 H       1  UNL1        0.0000
     95 H          -6.2921    0.9339   -0.6351 H       1  UNL1        0.0000
     96 H          -5.1229    0.2438   -1.7804 H       1  UNL1        0.0000
     97 H          -2.8404   -2.7928    2.7059 H       1  UNL1        0.0000
     98 H          -2.8790   -6.5754    2.8556 H       1  UNL1        0.0000
     99 H          -4.0735   -5.8717    1.7602 H       1  UNL1        0.0000
    100 H          -3.8302   -5.1791    3.3799 H       1  UNL1        0.0000
    101 H          -1.2283   -6.3308    0.9342 H       1  UNL1        0.0000
    102 H          -0.7304   -4.7404    0.3733 H       1  UNL1        0.0000
    103 H          -2.3097   -5.3957   -0.1159 H       1  UNL1        0.0000
    104 H          -0.6388   -5.5193    3.2070 H       1  UNL1        0.0000
    105 H          -1.5318   -4.1947    3.9781 H       1  UNL1        0.0000
    106 H          -0.3457   -3.8589    2.6981 H       1  UNL1        0.0000
    107 H           3.2481   -2.1887   -1.9295 H       1  UNL1        0.0000
    108 H           1.5331   -6.0617   -2.5414 H       1  UNL1        0.0000
    109 H           0.5340   -4.7889   -1.8256 H       1  UNL1        0.0000
    110 H           1.7534   -5.6075   -0.8438 H       1  UNL1        0.0000
    111 H           2.3236   -4.5942   -4.4086 H       1  UNL1        0.0000
    112 H           2.9769   -2.9781   -4.0796 H       1  UNL1        0.0000
    113 H           1.2638   -3.3066   -3.8069 H       1  UNL1        0.0000
    114 H           4.0151   -5.6500   -3.0064 H       1  UNL1        0.0000
    115 H           4.2291   -5.2398   -1.3010 H       1  UNL1        0.0000
    116 H           4.7553   -4.1046   -2.5556 H       1  UNL1        0.0000
    117 H           1.0215    3.1964   -2.3152 H       1  UNL1        0.0000
    118 H           1.2959    4.1354   -5.8248 H       1  UNL1        0.0000
    119 H           2.6744    3.5477   -4.8903 H       1  UNL1        0.0000
    120 H           1.5206    4.6674   -4.1486 H       1  UNL1        0.0000
    121 H           0.5805    1.7593   -6.3356 H       1  UNL1        0.0000
    122 H           0.3881    0.5726   -5.0283 H       1  UNL1        0.0000
    123 H           1.9931    1.1762   -5.4531 H       1  UNL1        0.0000
    124 H          -1.0129    3.4087   -5.3382 H       1  UNL1        0.0000
    125 H          -0.8871    3.8677   -3.6297 H       1  UNL1        0.0000
    126 H          -1.3736    2.2273   -4.0695 H       1  UNL1        0.0000
    127 O           2.6369   -0.2351   -3.3849 O.2     1  UNL1        0.0000
    128 O           1.7058   -4.1980    1.1107 O.2     1  UNL1        0.0000
    129 O           3.1906    3.9990   -1.7119 O.2     1  UNL1        0.0000
    130 O           5.1222   -1.6953   -0.6374 O.2     1  UNL1        0.0000
    131 O          -4.4502   -4.7736   -0.4293 O.2     1  UNL1        0.0000
    132 O          -4.4887   -1.1857    2.4509 O.2     1  UNL1        0.0000
    133 O          -4.5348    3.6028    2.2321 O.2     1  UNL1        0.0000
    134 O          -1.3893    3.3891   -1.1035 O.2     1  UNL1        0.0000
@<TRIPOS>BOND
     1     1     7    1
     2     1     9    1
     3     1     2    1
     4     2     8    1
     5     2    10    1
     6     3    61    1
     7     3    12    1
     8     4    35    1
     9     4     8    1
    10     5    74    1
    11     5    14    1
    12     6    10    1
    13     6    48    1
    14     7     4    1
    15     9     6    1
    16    11     1    1
    17    11     3    1
    18    12     2    1
    19    13     5    1
    20    13     1    1
    21    14     2    1
    22    15    36   am
    23    16    49   am
    24    16    48    1
    25    17    62   am
    26    17    69   am
    27    18    82   am
    28    22    41    1
    29    24    52    1
    30    25    53    1
    31    26    54    1
    32    27    64    1
    33    31    77    1
    34    32    78    1
    35    35    15    1
    36    35    87    1
    37    36    37    1
    38    36   133    2
    39    37    38   ar
    40    38    39   ar
    41    38    19    1
    42    39    20    1
    43    40    21    1
    44    40    39   ar
    45    41    40   ar
    46    42    41   ar
    47    42    37   ar
    48    43    15   am
    49    43    42    1
    50    44    45    1
    51    44    35    1
    52    45    88    1
    53    45    89    1
    54    46    93    1
    55    46    44    1
    56    47    44    1
    57    47    95    1
    58    48    57    1
    59    48    97    1
    60    49   132    2
    61    50    51   ar
    62    50    49    1
    63    51    23    1
    64    52    51   ar
    65    53    54   ar
    66    53    52   ar
    67    54    55   ar
    68    55    56    1
    69    55    50   ar
    70    56    16   am
    71    57    58    1
    72    57    60    1
    73    58    98    1
    74    58   100    1
    75    59   101    1
    76    59    57    1
    77    60   104    1
    78    60   105    1
    79    61   107    1
    80    61    17    1
    81    62    63    1
    82    63    68   ar
    83    63    64   ar
    84    64    65   ar
    85    65    66   ar
    86    65    28    1
    87    66    29    1
    88    67    30    1
    89    67    66   ar
    90    68    67   ar
    91    69   128    2
    92    69    68    1
    93    70    73    1
    94    70    71    1
    95    70    61    1
    96    71   109    1
    97    71   110    1
    98    72    70    1
    99    73   115    1
   100    74    18    1
   101    74   117    1
   102    75    18   am
   103    75    76    1
   104    76    81   ar
   105    77    76   ar
   106    77    78   ar
   107    78    79   ar
   108    79    80   ar
   109    79    33    1
   110    80    34    1
   111    81    80   ar
   112    82    81    1
   113    82   129    2
   114    83    86    1
   115    83    74    1
   116    84    83    1
   117    84   120    1
   118    85   122    1
   119    85    83    1
   120    86   126    1
   121    86   125    1
   122    90    45    1
   123    91    46    1
   124    92    46    1
   125    94    47    1
   126    96    47    1
   127    99    58    1
   128   102    59    1
   129   103    59    1
   130   106    60    1
   131   108    71    1
   132   111    72    1
   133   112    72    1
   134   113    72    1
   135   114    73    1
   136   116    73    1
   137   118    84    1
   138   119    84    1
   139   121    85    1
   140   123    85    1
   141   124    86    1
   142   127    75    2
   143   130    62    2
   144   131    56    2
   145   134    43    2
