@<TRIPOS>MOLECULE
RhRh_pFPhMe2-O2C4_20kcal_9_sp
 94 101 0 0 0
SMALL
GASTEIGER

@<TRIPOS>ATOM
      1 Rh          0.5021   -0.1647   -1.5943 Rh      1  UNL1        0.0000
      2 Rh          0.1627   -0.3589    0.7614 Rh      1  UNL1        0.0000
      3 C           2.6777    0.8528    0.0225 C.3     1  UNL1        0.0000
      4 C           1.4739   -2.6348   -0.4431 C.3     1  UNL1        0.0000
      5 C          -2.0502   -1.3123   -0.8504 C.3     1  UNL1        0.0000
      6 C          -0.8324    2.0994   -0.3790 C.3     1  UNL1        0.0000
      7 O           1.3878   -2.0205   -1.5550 O.3     1  UNL1        0.0000
      8 O           0.9720   -2.2454    0.6581 O.3     1  UNL1        0.0000
      9 O           2.3269    0.7016   -1.1929 O.3     1  UNL1        0.0000
     10 O           2.0381    0.4262    1.0348 O.3     1  UNL1        0.0000
     11 O          -0.4213    1.6742   -1.5051 O.3     1  UNL1        0.0000
     12 O          -0.6118    1.5399    0.7435 O.3     1  UNL1        0.0000
     13 O          -1.3341   -1.0331   -1.8671 O.3     1  UNL1        0.0000
     14 O          -1.7144   -1.1078    0.3573 O.3     1  UNL1        0.0000
     15 F           1.9403    6.9399    1.1646 F       1  UNL1        0.0000
     16 F          -6.9940    1.1968   -0.0994 F       1  UNL1        0.0000
     17 F          -6.4548   -2.9321    3.5258 F       1  UNL1        0.0000
     18 F           7.5515   -2.1474    0.9109 F       1  UNL1        0.0000
     19 C           2.3164   -3.9172   -0.4087 C.3     1  UNL1        0.0000
     20 C           3.7314   -3.4444   -0.0206 C.ar    1  UNL1        0.0000
     21 C           4.4055   -2.5313   -0.8476 C.ar    1  UNL1        0.0000
     22 C           5.6928   -2.0959   -0.5450 C.ar    1  UNL1        0.0000
     23 C           6.3053   -2.5686    0.6099 C.ar    1  UNL1        0.0000
     24 C           5.6657   -3.4582    1.4599 C.ar    1  UNL1        0.0000
     25 C           4.3782   -3.8899    1.1368 C.ar    1  UNL1        0.0000
     26 C           3.9322    1.6904    0.3007 C.3     1  UNL1        0.0000
     27 C           3.3969    3.1110    0.5665 C.ar    1  UNL1        0.0000
     28 C           2.6370    3.7569   -0.4222 C.ar    1  UNL1        0.0000
     29 C           2.1498    5.0470   -0.2314 C.ar    1  UNL1        0.0000
     30 C           2.4163    5.6918    0.9709 C.ar    1  UNL1        0.0000
     31 C           3.1530    5.0823    1.9753 C.ar    1  UNL1        0.0000
     32 C           3.6382    3.7906    1.7645 C.ar    1  UNL1        0.0000
     33 C          -1.7342    3.3418   -0.3685 C.3     1  UNL1        0.0000
     34 C          -3.1726    2.7835   -0.3137 C.ar    1  UNL1        0.0000
     35 C          -3.5652    1.9818    0.7710 C.ar    1  UNL1        0.0000
     36 C          -4.8498    1.4578    0.8604 C.ar    1  UNL1        0.0000
     37 C          -5.7529    1.7374   -0.1568 C.ar    1  UNL1        0.0000
     38 C          -5.4086    2.5228   -1.2461 C.ar    1  UNL1        0.0000
     39 C          -4.1131    3.0414   -1.3169 C.ar    1  UNL1        0.0000
     40 C          -3.4091   -1.9675   -1.1630 C.3     1  UNL1        0.0000
     41 C          -4.2351   -2.1992    0.1029 C.ar    1  UNL1        0.0000
     42 C          -5.5265   -1.6846    0.2480 C.ar    1  UNL1        0.0000
     43 C          -6.2839   -1.9222    1.3971 C.ar    1  UNL1        0.0000
     44 C          -5.7350   -2.6950    2.4078 C.ar    1  UNL1        0.0000
     45 C          -4.4573   -3.2339    2.3007 C.ar    1  UNL1        0.0000
     46 C          -3.7200   -2.9827    1.1484 C.ar    1  UNL1        0.0000
     47 C          -1.4472    4.1910    0.8879 C.3     1  UNL1        0.0000
     48 C          -1.4687    4.1856   -1.6217 C.3     1  UNL1        0.0000
     49 C          -4.1190   -1.0602   -2.1882 C.3     1  UNL1        0.0000
     50 C          -3.1045   -3.3304   -1.8387 C.3     1  UNL1        0.0000
     51 C           1.7087   -4.8934    0.6095 C.3     1  UNL1        0.0000
     52 C           2.3454   -4.5853   -1.7972 C.3     1  UNL1        0.0000
     53 C           4.8634    1.7054   -0.9262 C.3     1  UNL1        0.0000
     54 C           4.6799    1.0892    1.5008 C.3     1  UNL1        0.0000
     55 H           3.9133   -2.1439   -1.7324 H       1  UNL1        0.0000
     56 H           6.2237   -1.4031   -1.1877 H       1  UNL1        0.0000
     57 H           6.1701   -3.8032    2.3553 H       1  UNL1        0.0000
     58 H           3.8849   -4.5838    1.8056 H       1  UNL1        0.0000
     59 H           2.4095    3.2399   -1.3480 H       1  UNL1        0.0000
     60 H           1.5733    5.5560   -0.9954 H       1  UNL1        0.0000
     61 H           3.3385    5.6125    2.9025 H       1  UNL1        0.0000
     62 H           4.2102    3.3187    2.5534 H       1  UNL1        0.0000
     63 H          -2.8475    1.7400    1.5444 H       1  UNL1        0.0000
     64 H          -5.1448    0.8209    1.6847 H       1  UNL1        0.0000
     65 H          -6.1385    2.7153   -2.0242 H       1  UNL1        0.0000
     66 H          -3.8485    3.6488   -2.1732 H       1  UNL1        0.0000
     67 H          -5.9651   -1.0678   -0.5237 H       1  UNL1        0.0000
     68 H          -7.2789   -1.5068    1.5079 H       1  UNL1        0.0000
     69 H          -4.0577   -3.8331    3.1112 H       1  UNL1        0.0000
     70 H          -2.7172   -3.3869    1.0737 H       1  UNL1        0.0000
     71 H          -2.1263    5.0478    0.9066 H       1  UNL1        0.0000
     72 H          -1.5860    3.6155    1.8026 H       1  UNL1        0.0000
     73 H          -0.4183    4.5601    0.8721 H       1  UNL1        0.0000
     74 H          -0.4292    4.5194   -1.6236 H       1  UNL1        0.0000
     75 H          -1.6374    3.6196   -2.5384 H       1  UNL1        0.0000
     76 H          -2.1093    5.0718   -1.6214 H       1  UNL1        0.0000
     77 H          -5.0636   -1.5122   -2.5021 H       1  UNL1        0.0000
     78 H          -4.3243   -0.0697   -1.7764 H       1  UNL1        0.0000
     79 H          -3.4846   -0.9392   -3.0665 H       1  UNL1        0.0000
     80 H          -2.5551   -3.9973   -1.1689 H       1  UNL1        0.0000
     81 H          -4.0458   -3.8192   -2.1036 H       1  UNL1        0.0000
     82 H          -2.5105   -3.1812   -2.7429 H       1  UNL1        0.0000
     83 H           2.3062   -5.8078    0.6600 H       1  UNL1        0.0000
     84 H           1.6406   -4.4515    1.6039 H       1  UNL1        0.0000
     85 H           0.6982   -5.1701    0.2960 H       1  UNL1        0.0000
     86 H           2.9813   -5.4739   -1.7572 H       1  UNL1        0.0000
     87 H           1.3382   -4.8911   -2.0957 H       1  UNL1        0.0000
     88 H           2.7325   -3.9135   -2.5627 H       1  UNL1        0.0000
     89 H           5.7330    2.3323   -0.7108 H       1  UNL1        0.0000
     90 H           5.2095    0.6939   -1.1514 H       1  UNL1        0.0000
     91 H           4.3624    2.0966   -1.8114 H       1  UNL1        0.0000
     92 H           5.5765    1.6759    1.7197 H       1  UNL1        0.0000
     93 H           4.0489    1.0500    2.3892 H       1  UNL1        0.0000
     94 H           4.9936    0.0696    1.2647 H       1  UNL1        0.0000
@<TRIPOS>BOND
     1     1     7    1
     2     1    11    1
     3     1     9    1
     4     1     2    1
     5     2    10    1
     6     3    26    1
     7     3    10    1
     8     4    19    1
     9     4     8    1
    10     5    14    1
    11     6    33    1
    12     6    12    1
    13     7     4    1
    14     8     2    1
    15     9     3    1
    16    11     6    1
    17    12     2    1
    18    13     1    1
    19    13     5    1
    20    14     2    1
    21    19    20    1
    22    19    51    1
    23    20    25   ar
    24    21    22   ar
    25    21    20   ar
    26    22    23   ar
    27    23    18    1
    28    23    24   ar
    29    24    57    1
    30    25    24   ar
    31    25    58    1
    32    26    27    1
    33    26    54    1
    34    27    32   ar
    35    28    29   ar
    36    28    27   ar
    37    29    30   ar
    38    30    15    1
    39    30    31   ar
    40    31    61    1
    41    32    31   ar
    42    32    62    1
    43    33    34    1
    44    33    47    1
    45    34    35   ar
    46    35    36   ar
    47    35    63    1
    48    36    64    1
    49    37    16    1
    50    37    36   ar
    51    38    37   ar
    52    39    38   ar
    53    39    34   ar
    54    40     5    1
    55    40    41    1
    56    41    42   ar
    57    41    46   ar
    58    42    43   ar
    59    43    68    1
    60    43    44   ar
    61    44    17    1
    62    45    44   ar
    63    45    69    1
    64    46    45   ar
    65    47    71    1
    66    47    72    1
    67    48    76    1
    68    48    33    1
    69    49    78    1
    70    49    40    1
    71    50    80    1
    72    50    40    1
    73    51    83    1
    74    51    84    1
    75    52    86    1
    76    52    19    1
    77    53    89    1
    78    53    26    1
    79    54    92    1
    80    54    93    1
    81    55    21    1
    82    56    22    1
    83    59    28    1
    84    60    29    1
    85    65    38    1
    86    66    39    1
    87    67    42    1
    88    70    46    1
    89    73    47    1
    90    74    48    1
    91    75    48    1
    92    77    49    1
    93    79    49    1
    94    81    50    1
    95    82    50    1
    96    85    51    1
    97    87    52    1
    98    88    52    1
    99    90    53    1
   100    91    53    1
   101    94    54    1
