@<TRIPOS>MOLECULE
RhRh_ACyPropyl4_28
 102 117 0 0 0
SMALL
GASTEIGER

@<TRIPOS>ATOM
      1 Rh          0.0995    0.4822   -0.2190 Rh      1  UNL1        0.0000
      2 Rh         -1.0429   -0.6532    1.5549 Rh      1  UNL1        0.0000
      3 C           0.8549   -2.2805    0.1188 C.3     1  UNL1        0.0000
      4 C           1.4933    0.5132    2.2870 C.3     1  UNL1        0.0000
      5 C          -2.0141    2.0013    1.0085 C.3     1  UNL1        0.0000
      6 C          -2.3527   -0.8226   -1.0045 C.3     1  UNL1        0.0000
      7 O           1.5334    1.0292    1.1240 O.3     1  UNL1        0.0000
      8 O           0.5044   -0.0890    2.8107 O.3     1  UNL1        0.0000
      9 O          -1.0839    2.1216    0.1485 O.3     1  UNL1        0.0000
     10 O          -2.1349    1.0671    1.8648 O.3     1  UNL1        0.0000
     11 O          -2.4774   -1.1951    0.2092 O.3     1  UNL1        0.0000
     12 O          -1.3847   -0.1641   -1.4947 O.3     1  UNL1        0.0000
     13 O           0.0008   -2.3498    1.0613 O.3     1  UNL1        0.0000
     14 O           1.1779   -1.2347   -0.5253 O.3     1  UNL1        0.0000
     15 N           3.8812    0.9990    2.2815 N.am    1  UNL1        0.0000
     16 N          -2.8432    4.1054    0.0635 N.am    1  UNL1        0.0000
     17 N          -4.4082   -2.0950   -1.3195 N.am    1  UNL1        0.0000
     18 N           2.7800   -3.4143   -0.9147 N.am    1  UNL1        0.0000
     19 C           2.7621    0.6037    3.0778 C.3     1  UNL1        0.0000
     20 C           2.7115    0.9992    4.5405 C.3     1  UNL1        0.0000
     21 C           2.9944   -0.4193    4.1749 C.3     1  UNL1        0.0000
     22 C           4.3288    2.3290    2.1207 C.2     1  UNL1        0.0000
     23 C           5.2151    2.3051    0.9200 C.ar    1  UNL1        0.0000
     24 C           5.9520    3.3240    0.3362 C.ar    1  UNL1        0.0000
     25 C           6.6701    3.0152   -0.8258 C.ar    1  UNL1        0.0000
     26 C           6.6392    1.7267   -1.3745 C.ar    1  UNL1        0.0000
     27 C           5.8931    0.7036   -0.7782 C.ar    1  UNL1        0.0000
     28 C           5.1907    1.0200    0.3745 C.ar    1  UNL1        0.0000
     29 C           4.3026    0.1748    1.2139 C.2     1  UNL1        0.0000
     30 C          -3.1040    3.0206    0.9525 C.3     1  UNL1        0.0000
     31 C          -4.5331    2.4911    1.0235 C.3     1  UNL1        0.0000
     32 C          -3.9702    3.2605    2.1699 C.3     1  UNL1        0.0000
     33 C          -2.0881    5.2390    0.4377 C.2     1  UNL1        0.0000
     34 C          -1.7935    5.9575   -0.8348 C.ar    1  UNL1        0.0000
     35 C          -1.1242    7.1522   -1.0501 C.ar    1  UNL1        0.0000
     36 C          -0.9806    7.5796   -2.3756 C.ar    1  UNL1        0.0000
     37 C          -1.4950    6.8262   -3.4384 C.ar    1  UNL1        0.0000
     38 C          -2.1698    5.6209   -3.2099 C.ar    1  UNL1        0.0000
     39 C          -2.3060    5.2062   -1.8941 C.ar    1  UNL1        0.0000
     40 C          -2.9505    3.9838   -1.3372 C.2     1  UNL1        0.0000
     41 C          -3.4743   -1.1938   -1.9148 C.3     1  UNL1        0.0000
     42 C          -3.2107   -1.2911   -3.4039 C.3     1  UNL1        0.0000
     43 C          -3.9939   -0.1367   -2.8765 C.3     1  UNL1        0.0000
     44 C          -4.0895   -3.4558   -1.1198 C.2     1  UNL1        0.0000
     45 C          -5.1196   -3.9749   -0.1778 C.ar    1  UNL1        0.0000
     46 C          -5.3208   -5.2575    0.3085 C.ar    1  UNL1        0.0000
     47 C          -6.3693   -5.4440    1.2173 C.ar    1  UNL1        0.0000
     48 C          -7.1784   -4.3732    1.6180 C.ar    1  UNL1        0.0000
     49 C          -6.9651   -3.0810    1.1227 C.ar    1  UNL1        0.0000
     50 C          -5.9258   -2.9071    0.2218 C.ar    1  UNL1        0.0000
     51 C          -5.4387   -1.6703   -0.4523 C.2     1  UNL1        0.0000
     52 C           1.4857   -3.5633   -0.3297 C.3     1  UNL1        0.0000
     53 C           0.5262   -4.5885   -0.9305 C.3     1  UNL1        0.0000
     54 C           1.1691   -4.8482    0.3933 C.3     1  UNL1        0.0000
     55 C           3.9809   -3.5651   -0.1831 C.2     1  UNL1        0.0000
     56 C           5.0616   -3.1040   -1.1018 C.ar    1  UNL1        0.0000
     57 C           6.4326   -3.0507   -0.9040 C.ar    1  UNL1        0.0000
     58 C           7.2177   -2.5631   -1.9561 C.ar    1  UNL1        0.0000
     59 C           6.6343   -2.1490   -3.1613 C.ar    1  UNL1        0.0000
     60 C           5.2481   -2.2126   -3.3514 C.ar    1  UNL1        0.0000
     61 C           4.4805   -2.6953   -2.3018 C.ar    1  UNL1        0.0000
     62 C           3.0031   -2.8908   -2.2055 C.2     1  UNL1        0.0000
     63 H           3.5171    1.6365    4.8824 H       1  UNL1        0.0000
     64 H           1.7276    1.2463    4.9226 H       1  UNL1        0.0000
     65 H           2.2115   -1.1565    4.3025 H       1  UNL1        0.0000
     66 H           4.0109   -0.7861    4.2555 H       1  UNL1        0.0000
     67 H           5.8579   -0.2933   -1.1982 H       1  UNL1        0.0000
     68 H          -5.2347    2.9784    0.3574 H       1  UNL1        0.0000
     69 H          -4.6426    1.4162    1.1002 H       1  UNL1        0.0000
     70 H          -3.6781    2.7195    3.0618 H       1  UNL1        0.0000
     71 H          -4.2854    4.2856    2.3231 H       1  UNL1        0.0000
     72 H          -0.7269    7.7234   -0.2181 H       1  UNL1        0.0000
     73 H          -1.3651    7.1835   -4.4551 H       1  UNL1        0.0000
     74 H          -2.5707    5.0262   -4.0236 H       1  UNL1        0.0000
     75 H          -3.7337   -2.0905   -3.9156 H       1  UNL1        0.0000
     76 H          -2.1833   -1.1284   -3.7066 H       1  UNL1        0.0000
     77 H          -3.5286    0.8388   -2.8026 H       1  UNL1        0.0000
     78 H          -5.0691   -0.1284   -3.0089 H       1  UNL1        0.0000
     79 H          -7.5803   -2.2420    1.4292 H       1  UNL1        0.0000
     80 H           0.8964   -5.1070   -1.8072 H       1  UNL1        0.0000
     81 H          -0.5232   -4.3146   -0.9656 H       1  UNL1        0.0000
     82 H           0.5676   -4.7454    1.2878 H       1  UNL1        0.0000
     83 H           1.9801   -5.5626    0.4546 H       1  UNL1        0.0000
     84 H           6.8683   -3.3697    0.0365 H       1  UNL1        0.0000
     85 H           7.2689   -1.7755   -3.9589 H       1  UNL1        0.0000
     86 H           4.7824   -1.8986   -4.2793 H       1  UNL1        0.0000
     87 O           4.0806   -4.0178    0.9351 O.2     1  UNL1        0.0000
     88 O           2.1572   -2.6844   -3.0477 O.2     1  UNL1        0.0000
     89 O          -3.1479   -4.0352   -1.6202 O.2     1  UNL1        0.0000
     90 O          -5.8163   -0.5265   -0.3079 O.2     1  UNL1        0.0000
     91 O          -1.7703    5.5277    1.5708 O.2     1  UNL1        0.0000
     92 O          -3.4733    3.0628   -1.9292 O.2     1  UNL1        0.0000
     93 O           4.0382    3.2668    2.8315 O.2     1  UNL1        0.0000
     94 O           3.9600   -0.9774    1.0535 O.2     1  UNL1        0.0000
     95 H           5.9590    4.3201    0.7654 H       1  UNL1        0.0000
     96 H           7.2560    3.7874   -1.3143 H       1  UNL1        0.0000
     97 H           7.2002    1.5187   -2.2802 H       1  UNL1        0.0000
     98 H          -0.4601    8.5085   -2.5859 H       1  UNL1        0.0000
     99 H          -4.6831   -6.0767   -0.0053 H       1  UNL1        0.0000
    100 H          -6.5580   -6.4331    1.6224 H       1  UNL1        0.0000
    101 H          -7.9809   -4.5498    2.3270 H       1  UNL1        0.0000
    102 H           8.2949   -2.5007   -1.8376 H       1  UNL1        0.0000
@<TRIPOS>BOND
     1     1     9    1
     2     1     7    1
     3     1     2    1
     4     2    10    1
     5     2     8    1
     6     3    13    1
     7     4     8    1
     8     4    19    1
     9     5    10    1
    10     6    11    1
    11     7     4    1
    12     9     5    1
    13    11     2    1
    14    12     6    1
    15    12     1    1
    16    13     2    1
    17    14     1    1
    18    14     3    1
    19    15    19    1
    20    16    33   am
    21    16    30    1
    22    17    44   am
    23    17    51   am
    24    18    52    1
    25    18    55   am
    26    19    21    1
    27    19    20    1
    28    20    63    1
    29    20    64    1
    30    21    66    1
    31    21    65    1
    32    21    20    1
    33    22    15   am
    34    22    93    2
    35    23    22    1
    36    24    95    1
    37    24    23   ar
    38    25    24   ar
    39    26    25   ar
    40    26    27   ar
    41    27    28   ar
    42    28    23   ar
    43    28    29    1
    44    29    15   am
    45    30     5    1
    46    30    31    1
    47    30    32    1
    48    31    69    1
    49    31    32    1
    50    32    71    1
    51    32    70    1
    52    33    91    2
    53    34    33    1
    54    35    34   ar
    55    35    72    1
    56    36    35   ar
    57    37    38   ar
    58    37    36   ar
    59    38    39   ar
    60    39    40    1
    61    39    34   ar
    62    40    16   am
    63    41    17    1
    64    41     6    1
    65    42    43    1
    66    42    41    1
    67    43    77    1
    68    43    41    1
    69    44    45    1
    70    45    50   ar
    71    45    46   ar
    72    46    47   ar
    73    47    48   ar
    74    47   100    1
    75    48   101    1
    76    49    79    1
    77    49    48   ar
    78    50    49   ar
    79    51    90    2
    80    51    50    1
    81    52     3    1
    82    52    54    1
    83    53    52    1
    84    53    54    1
    85    54    83    1
    86    54    82    1
    87    55    87    2
    88    56    57   ar
    89    56    55    1
    90    57    84    1
    91    58   102    1
    92    58    57   ar
    93    59    58   ar
    94    60    59   ar
    95    60    61   ar
    96    61    62    1
    97    61    56   ar
    98    62    18   am
    99    67    27    1
   100    68    31    1
   101    73    37    1
   102    74    38    1
   103    75    42    1
   104    76    42    1
   105    78    43    1
   106    80    53    1
   107    81    53    1
   108    85    59    1
   109    86    60    1
   110    88    62    2
   111    89    44    2
   112    92    40    2
   113    94    29    2
   114    96    25    1
   115    97    26    1
   116    98    36    1
   117    99    46    1
