@<TRIPOS>MOLECULE
RhRh_ACyPropyl4_22
 102 117 0 0 0
SMALL
GASTEIGER

@<TRIPOS>ATOM
      1 Rh         -1.1072   -0.5379   -1.5644 Rh      1  UNL1        0.0000
      2 Rh          0.0350    0.5125    0.2600 Rh      1  UNL1        0.0000
      3 C          -1.7125    2.2600   -1.2116 C.3     1  UNL1        0.0000
      4 C          -2.5875   -0.4993    0.9079 C.3     1  UNL1        0.0000
      5 C           0.5021   -2.3323    0.0069 C.3     1  UNL1        0.0000
      6 C           1.6257    0.2139   -2.0957 C.3     1  UNL1        0.0000
      7 O          -2.7005   -0.8338   -0.3168 O.3     1  UNL1        0.0000
      8 O          -1.5888    0.0739    1.4435 O.3     1  UNL1        0.0000
      9 O          -0.3347   -2.3346   -0.9550 O.3     1  UNL1        0.0000
     10 O           0.8782   -1.3176    0.6698 O.3     1  UNL1        0.0000
     11 O           1.6176    0.8547   -0.9969 O.3     1  UNL1        0.0000
     12 O           0.6118   -0.2834   -2.6841 O.3     1  UNL1        0.0000
     13 O          -0.8992    2.2685   -0.2334 O.3     1  UNL1        0.0000
     14 O          -1.8871    1.3134   -2.0431 O.3     1  UNL1        0.0000
     15 N          -4.6516   -1.7661    1.2005 N.am    1  UNL1        0.0000
     16 N           2.3687   -3.5871    1.0043 N.am    1  UNL1        0.0000
     17 N           4.0620    0.5066   -1.9798 N.am    1  UNL1        0.0000
     18 N          -2.3824    4.4450   -0.3352 N.am    1  UNL1        0.0000
     19 C          -3.7538   -0.8207    1.7847 C.3     1  UNL1        0.0000
     20 C          -3.5515   -0.8451    3.2863 C.3     1  UNL1        0.0000
     21 C          -4.3148    0.2795    2.6702 C.3     1  UNL1        0.0000
     22 C          -5.7551   -1.4233    0.3868 C.2     1  UNL1        0.0000
     23 C          -6.1729   -2.6970   -0.2683 C.ar    1  UNL1        0.0000
     24 C          -7.2328   -2.9516   -1.1246 C.ar    1  UNL1        0.0000
     25 C          -7.3695   -4.2580   -1.6096 C.ar    1  UNL1        0.0000
     26 C          -6.4676   -5.2644   -1.2415 C.ar    1  UNL1        0.0000
     27 C          -5.3999   -4.9969   -0.3763 C.ar    1  UNL1        0.0000
     28 C          -5.2745   -3.7005    0.0989 C.ar    1  UNL1        0.0000
     29 C          -4.2530   -3.1037    1.0018 C.2     1  UNL1        0.0000
     30 C           1.0659   -3.6568    0.4240 C.3     1  UNL1        0.0000
     31 C           0.0723   -4.6689    0.9827 C.3     1  UNL1        0.0000
     32 C           0.7036   -4.8996   -0.3522 C.3     1  UNL1        0.0000
     33 C           3.5490   -3.6480    0.2344 C.2     1  UNL1        0.0000
     34 C           4.6571   -3.3362    1.1816 C.ar    1  UNL1        0.0000
     35 C           6.0209   -3.2502    0.9547 C.ar    1  UNL1        0.0000
     36 C           6.8300   -2.8608    2.0286 C.ar    1  UNL1        0.0000
     37 C           6.2758   -2.5720    3.2831 C.ar    1  UNL1        0.0000
     38 C           4.8956   -2.6664    3.5009 C.ar    1  UNL1        0.0000
     39 C           4.1046   -3.0505    2.4290 C.ar    1  UNL1        0.0000
     40 C           2.6232   -3.2018    2.3391 C.2     1  UNL1        0.0000
     41 C           2.9653   -0.0578   -2.6980 C.3     1  UNL1        0.0000
     42 C           3.1031   -0.2992   -4.1850 C.3     1  UNL1        0.0000
     43 C           3.1583   -1.4667   -3.2607 C.3     1  UNL1        0.0000
     44 C           4.7287    1.7057   -2.3076 C.2     1  UNL1        0.0000
     45 C           5.6567    1.9639   -1.1653 C.ar    1  UNL1        0.0000
     46 C           6.5856    2.9760   -0.9807 C.ar    1  UNL1        0.0000
     47 C           7.3264    2.9604    0.2080 C.ar    1  UNL1        0.0000
     48 C           7.1356    1.9587    1.1684 C.ar    1  UNL1        0.0000
     49 C           6.1946    0.9399    0.9743 C.ar    1  UNL1        0.0000
     50 C           5.4648    0.9696   -0.2041 C.ar    1  UNL1        0.0000
     51 C           4.4084    0.0461   -0.6939 C.2     1  UNL1        0.0000
     52 C          -2.5733    3.4733   -1.3627 C.3     1  UNL1        0.0000
     53 C          -3.9845    3.2699   -1.8930 C.3     1  UNL1        0.0000
     54 C          -2.9653    3.9395   -2.7506 C.3     1  UNL1        0.0000
     55 C          -2.8062    4.2032    0.9884 C.2     1  UNL1        0.0000
     56 C          -2.1557    5.2557    1.8164 C.ar    1  UNL1        0.0000
     57 C          -2.2621    5.5160    3.1740 C.ar    1  UNL1        0.0000
     58 C          -1.5091    6.5794    3.6863 C.ar    1  UNL1        0.0000
     59 C          -0.6832    7.3468    2.8552 C.ar    1  UNL1        0.0000
     60 C          -0.5831    7.0755    1.4853 C.ar    1  UNL1        0.0000
     61 C          -1.3320    6.0204    0.9880 C.ar    1  UNL1        0.0000
     62 C          -1.4228    5.4796   -0.3988 C.2     1  UNL1        0.0000
     63 H          -4.0980   -1.6185    3.8136 H       1  UNL1        0.0000
     64 H          -2.5384   -0.6662    3.6249 H       1  UNL1        0.0000
     65 H          -3.8457    1.2509    2.5660 H       1  UNL1        0.0000
     66 H          -5.3942    0.2951    2.7562 H       1  UNL1        0.0000
     67 H          -4.6918   -5.7656   -0.0864 H       1  UNL1        0.0000
     68 H           0.4238   -5.2349    1.8374 H       1  UNL1        0.0000
     69 H          -0.9651   -4.3552    1.0300 H       1  UNL1        0.0000
     70 H           0.1055   -4.7414   -1.2409 H       1  UNL1        0.0000
     71 H           1.4898   -5.6390   -0.4419 H       1  UNL1        0.0000
     72 H           6.4341   -3.4639   -0.0250 H       1  UNL1        0.0000
     73 H           6.9286   -2.2720    4.0970 H       1  UNL1        0.0000
     74 H           4.4516   -2.4424    4.4649 H       1  UNL1        0.0000
     75 H           4.0164    0.0685   -4.6361 H       1  UNL1        0.0000
     76 H           2.2002   -0.1451   -4.7640 H       1  UNL1        0.0000
     77 H           2.3000   -2.1223   -3.1882 H       1  UNL1        0.0000
     78 H           4.1121   -1.9270   -3.0334 H       1  UNL1        0.0000
     79 H           6.0368    0.1541    1.7056 H       1  UNL1        0.0000
     80 H          -4.7477    3.8737   -1.4167 H       1  UNL1        0.0000
     81 H          -4.2603    2.2455   -2.1108 H       1  UNL1        0.0000
     82 H          -2.5311    3.3778   -3.5692 H       1  UNL1        0.0000
     83 H          -3.0078    5.0127   -2.8891 H       1  UNL1        0.0000
     84 H          -2.9034    4.9120    3.8066 H       1  UNL1        0.0000
     85 H          -0.1100    8.1631    3.2833 H       1  UNL1        0.0000
     86 H           0.0562    7.6587    0.8314 H       1  UNL1        0.0000
     87 O          -3.5473    3.3061    1.3327 O.2     1  UNL1        0.0000
     88 O          -0.8249    5.8280   -1.3936 O.2     1  UNL1        0.0000
     89 O           4.5687    2.3541   -3.3193 O.2     1  UNL1        0.0000
     90 O           3.9142   -0.9097   -0.1372 O.2     1  UNL1        0.0000
     91 O           3.6091   -3.9151   -0.9477 O.2     1  UNL1        0.0000
     92 O           1.7901   -3.0567    3.2062 O.2     1  UNL1        0.0000
     93 O          -6.2384   -0.3181    0.2726 O.2     1  UNL1        0.0000
     94 O          -3.2595   -3.6130    1.4793 O.2     1  UNL1        0.0000
     95 H          -7.9210   -2.1618   -1.4057 H       1  UNL1        0.0000
     96 H          -8.1851   -4.4966   -2.2847 H       1  UNL1        0.0000
     97 H          -6.5990   -6.2665   -1.6371 H       1  UNL1        0.0000
     98 H           7.9034   -2.7774    1.8895 H       1  UNL1        0.0000
     99 H           6.7248    3.7464   -1.7313 H       1  UNL1        0.0000
    100 H           8.0620    3.7375    0.3902 H       1  UNL1        0.0000
    101 H           7.7278    1.9758    2.0779 H       1  UNL1        0.0000
    102 H          -1.5628    6.8133    4.7448 H       1  UNL1        0.0000
@<TRIPOS>BOND
     1     1     9    1
     2     1     7    1
     3     1     2    1
     4     2    10    1
     5     2     8    1
     6     3    13    1
     7     4     8    1
     8     4    19    1
     9     5    30    1
    10     5    10    1
    11     6    11    1
    12     7     4    1
    13     9     5    1
    14    11     2    1
    15    12     6    1
    16    12     1    1
    17    13     2    1
    18    14     1    1
    19    14     3    1
    20    15    19    1
    21    16    40   am
    22    17    51   am
    23    18    55   am
    24    19    21    1
    25    19    20    1
    26    20    64    1
    27    20    63    1
    28    21    66    1
    29    21    20    1
    30    22    15   am
    31    23    28   ar
    32    23    22    1
    33    24    23   ar
    34    25    26   ar
    35    25    24   ar
    36    26    27   ar
    37    27    67    1
    38    27    28   ar
    39    28    29    1
    40    29    15   am
    41    29    94    2
    42    30    31    1
    43    30    16    1
    44    31    69    1
    45    31    68    1
    46    32    30    1
    47    32    31    1
    48    33    16   am
    49    33    34    1
    50    34    39   ar
    51    35    34   ar
    52    35    36   ar
    53    36    37   ar
    54    37    38   ar
    55    37    73    1
    56    38    74    1
    57    39    38   ar
    58    40    39    1
    59    40    92    2
    60    41     6    1
    61    41    17    1
    62    42    43    1
    63    42    41    1
    64    43    77    1
    65    43    78    1
    66    43    41    1
    67    44    17   am
    68    44    45    1
    69    45    46   ar
    70    45    50   ar
    71    46    47   ar
    72    47   100    1
    73    47    48   ar
    74    48   101    1
    75    49    48   ar
    76    49    79    1
    77    50    49   ar
    78    51    50    1
    79    51    90    2
    80    52     3    1
    81    52    18    1
    82    53    80    1
    83    53    52    1
    84    54    53    1
    85    54    52    1
    86    55    87    2
    87    55    56    1
    88    56    57   ar
    89    57    58   ar
    90    57    84    1
    91    58   102    1
    92    59    85    1
    93    59    58   ar
    94    60    59   ar
    95    61    60   ar
    96    61    56   ar
    97    62    18   am
    98    62    61    1
    99    65    21    1
   100    70    32    1
   101    71    32    1
   102    72    35    1
   103    75    42    1
   104    76    42    1
   105    81    53    1
   106    82    54    1
   107    83    54    1
   108    86    60    1
   109    88    62    2
   110    89    44    2
   111    91    33    2
   112    93    22    2
   113    95    24    1
   114    96    25    1
   115    97    26    1
   116    98    36    1
   117    99    46    1
