@<TRIPOS>MOLECULE
RhRh_tri-pFPh-O2C4_13_sp
 150 165 0 0 0
SMALL
GASTEIGER

@<TRIPOS>ATOM
      1 Rh         -0.0270    0.0216   -1.1994 Rh      1  UNL1        0.0000
      2 Rh         -0.0187    0.0225    1.1880 Rh      1  UNL1        0.0000
      3 C          -1.4723    2.2197   -0.0246 C.3     1  UNL1        0.0000
      4 C          -2.2425   -1.3918    0.0214 C.3     1  UNL1        0.0000
      5 C           1.3671   -2.2174   -0.0247 C.3     1  UNL1        0.0000
      6 C           2.2171    1.4146    0.0078 C.3     1  UNL1        0.0000
      7 O           1.7340    1.1049   -1.1237 O.3     1  UNL1        0.0000
      8 O           1.7316    1.0620    1.1298 O.3     1  UNL1        0.0000
      9 O           0.9970   -1.7412   -1.1443 O.3     1  UNL1        0.0000
     10 O           1.0589   -1.7367    1.1076 O.3     1  UNL1        0.0000
     11 O          -1.7754   -1.0587   -1.1106 O.3     1  UNL1        0.0000
     12 O          -1.7743   -1.0200    1.1421 O.3     1  UNL1        0.0000
     13 O          -1.1045    1.7529   -1.1482 O.3     1  UNL1        0.0000
     14 O          -1.1157    1.7647    1.1053 O.3     1  UNL1        0.0000
     15 F           0.6236   -6.8903   -4.2639 F       1  UNL1        0.0000
     16 F           7.3456   -1.0164   -1.2917 F       1  UNL1        0.0000
     17 F           2.3033   -6.3064    4.7959 F       1  UNL1        0.0000
     18 F           1.7463    7.6045    1.3447 F       1  UNL1        0.0000
     19 F           6.3102    2.2596   -4.8240 F       1  UNL1        0.0000
     20 F           6.7509    0.4061    4.2989 F       1  UNL1        0.0000
     21 F           0.6723    8.0373   -1.3416 F       1  UNL1        0.0000
     22 F          -4.9600    3.8630    4.9879 F       1  UNL1        0.0000
     23 F          -6.3902    2.6151   -4.0534 F       1  UNL1        0.0000
     24 F          -0.8934   -7.3541    1.1867 F       1  UNL1        0.0000
     25 F          -7.0670   -0.9539    4.1869 F       1  UNL1        0.0000
     26 F          -6.1491   -2.2141   -4.9150 F       1  UNL1        0.0000
     27 C           3.4673    2.3285    0.0900 C.3     1  UNL1        0.0000
     28 C           2.9463    3.7627    0.3830 C.ar    1  UNL1        0.0000
     29 C           3.5851    4.8767   -0.1767 C.ar    1  UNL1        0.0000
     30 C           3.1923    6.1756    0.1462 C.ar    1  UNL1        0.0000
     31 C           2.1499    6.3537    1.0435 C.ar    1  UNL1        0.0000
     32 C           1.4970    5.2759    1.6239 C.ar    1  UNL1        0.0000
     33 C           1.9015    3.9861    1.2935 C.ar    1  UNL1        0.0000
     34 C           4.3311    1.8248    1.2619 C.ar    1  UNL1        0.0000
     35 C           4.9511    2.7071    2.1483 C.ar    1  UNL1        0.0000
     36 C           5.7723    2.2379    3.1757 C.ar    1  UNL1        0.0000
     37 C           5.9648    0.8708    3.3054 C.ar    1  UNL1        0.0000
     38 C           5.3708   -0.0369    2.4352 C.ar    1  UNL1        0.0000
     39 C           4.5604    0.4491    1.4153 C.ar    1  UNL1        0.0000
     40 C           4.2504    2.2897   -1.2340 C.ar    1  UNL1        0.0000
     41 C           3.6272    2.6887   -2.4287 C.ar    1  UNL1        0.0000
     42 C           4.3112    2.6776   -3.6388 C.ar    1  UNL1        0.0000
     43 C           5.6428    2.2710   -3.6520 C.ar    1  UNL1        0.0000
     44 C           6.2969    1.8862   -2.4929 C.ar    1  UNL1        0.0000
     45 C           5.5912    1.9008   -1.2872 C.ar    1  UNL1        0.0000
     46 C           2.3274   -3.4353   -0.1051 C.3     1  UNL1        0.0000
     47 C           3.7154   -2.8046   -0.4152 C.ar    1  UNL1        0.0000
     48 C           3.8482   -1.9300   -1.5078 C.ar    1  UNL1        0.0000
     49 C           5.0654   -1.3356   -1.8184 C.ar    1  UNL1        0.0000
     50 C           6.1695   -1.6249   -1.0266 C.ar    1  UNL1        0.0000
     51 C           6.0919   -2.5189    0.0306 C.ar    1  UNL1        0.0000
     52 C           4.8605   -3.1082    0.3290 C.ar    1  UNL1        0.0000
     53 C           1.8732   -4.3281   -1.2717 C.ar    1  UNL1        0.0000
     54 C           2.8028   -4.9755   -2.0884 C.ar    1  UNL1        0.0000
     55 C           2.3915   -5.8440   -3.1006 C.ar    1  UNL1        0.0000
     56 C           1.0331   -6.0579   -3.2844 C.ar    1  UNL1        0.0000
     57 C           0.0804   -5.4402   -2.4820 C.ar    1  UNL1        0.0000
     58 C           0.5095   -4.5815   -1.4754 C.ar    1  UNL1        0.0000
     59 C           2.3238   -4.2205    1.2181 C.ar    1  UNL1        0.0000
     60 C           2.6371   -3.5815    2.4311 C.ar    1  UNL1        0.0000
     61 C           2.6310   -4.2760    3.6362 C.ar    1  UNL1        0.0000
     62 C           2.3119   -5.6306    3.6291 C.ar    1  UNL1        0.0000
     63 C           2.0089   -6.2990    2.4536 C.ar    1  UNL1        0.0000
     64 C           2.0203   -5.5852    1.2536 C.ar    1  UNL1        0.0000
     65 C          -3.4359   -2.3798    0.0729 C.3     1  UNL1        0.0000
     66 C          -2.7738   -3.7582    0.3639 C.ar    1  UNL1        0.0000
     67 C          -1.8886   -3.8825    1.4487 C.ar    1  UNL1        0.0000
     68 C          -1.2607   -5.0880    1.7398 C.ar    1  UNL1        0.0000
     69 C          -1.5317   -6.1906    0.9399 C.ar    1  UNL1        0.0000
     70 C          -2.4395   -6.1237   -0.1069 C.ar    1  UNL1        0.0000
     71 C          -3.0586   -4.9032   -0.3887 C.ar    1  UNL1        0.0000
     72 C          -4.3666   -1.9884    1.2324 C.ar    1  UNL1        0.0000
     73 C          -5.0845   -2.9710    1.9202 C.ar    1  UNL1        0.0000
     74 C          -6.0001   -2.6320    2.9159 C.ar    1  UNL1        0.0000
     75 C          -6.1896   -1.2908    3.2200 C.ar    1  UNL1        0.0000
     76 C          -5.4981   -0.2855    2.5549 C.ar    1  UNL1        0.0000
     77 C          -4.5940   -0.6442    1.5596 C.ar    1  UNL1        0.0000
     78 C          -4.1864   -2.3519   -1.2712 C.ar    1  UNL1        0.0000
     79 C          -3.5240   -2.6887   -2.4657 C.ar    1  UNL1        0.0000
     80 C          -4.1760   -2.6446   -3.6925 C.ar    1  UNL1        0.0000
     81 C          -5.5119   -2.2575   -3.7288 C.ar    1  UNL1        0.0000
     82 C          -6.2024   -1.9247   -2.5737 C.ar    1  UNL1        0.0000
     83 C          -5.5309   -1.9759   -1.3493 C.ar    1  UNL1        0.0000
     84 C          -2.4261    3.4401   -0.0764 C.3     1  UNL1        0.0000
     85 C          -3.4470    3.2074   -1.2081 C.ar    1  UNL1        0.0000
     86 C          -3.9655    4.2825   -1.9343 C.ar    1  UNL1        0.0000
     87 C          -4.9594    4.0918   -2.8949 C.ar    1  UNL1        0.0000
     88 C          -5.4323    2.8073   -3.1237 C.ar    1  UNL1        0.0000
     89 C          -4.9434    1.7121   -2.4210 C.ar    1  UNL1        0.0000
     90 C          -3.9548    1.9252   -1.4656 C.ar    1  UNL1        0.0000
     91 C          -3.1376    3.5706    1.2836 C.ar    1  UNL1        0.0000
     92 C          -2.3876    3.8412    2.4405 C.ar    1  UNL1        0.0000
     93 C          -2.9901    3.9394    3.6886 C.ar    1  UNL1        0.0000
     94 C          -4.3681    3.7671    3.7810 C.ar    1  UNL1        0.0000
     95 C          -5.1447    3.5105    2.6621 C.ar    1  UNL1        0.0000
     96 C          -4.5197    3.4129    1.4153 C.ar    1  UNL1        0.0000
     97 C          -1.5549    4.6843   -0.3898 C.ar    1  UNL1        0.0000
     98 C          -1.8327    5.9219    0.2035 C.ar    1  UNL1        0.0000
     99 C          -1.0957    7.0614   -0.1196 C.ar    1  UNL1        0.0000
    100 C          -0.0723    6.9525   -1.0490 C.ar    1  UNL1        0.0000
    101 C           0.2225    5.7464   -1.6693 C.ar    1  UNL1        0.0000
    102 C          -0.5249    4.6203   -1.3406 C.ar    1  UNL1        0.0000
    103 H           4.4039    4.7351   -0.8706 H       1  UNL1        0.0000
    104 H           3.6749    7.0400   -0.2948 H       1  UNL1        0.0000
    105 H           0.6787    5.4538    2.3113 H       1  UNL1        0.0000
    106 H           1.4012    3.1476    1.7581 H       1  UNL1        0.0000
    107 H           4.7938    3.7738    2.0467 H       1  UNL1        0.0000
    108 H           6.2540    2.9173    3.8696 H       1  UNL1        0.0000
    109 H           5.5472   -1.0989    2.5537 H       1  UNL1        0.0000
    110 H           4.1053   -0.2589    0.7328 H       1  UNL1        0.0000
    111 H           2.5958    3.0167   -2.4084 H       1  UNL1        0.0000
    112 H           3.8341    2.9829   -4.5632 H       1  UNL1        0.0000
    113 H           7.3297    1.5616   -2.5327 H       1  UNL1        0.0000
    114 H           6.1035    1.5884   -0.3874 H       1  UNL1        0.0000
    115 H           2.9861   -1.7053   -2.1198 H       1  UNL1        0.0000
    116 H           5.1576   -0.6435   -2.6452 H       1  UNL1        0.0000
    117 H           6.9780   -2.7393    0.6148 H       1  UNL1        0.0000
    118 H           4.8021   -3.8060    1.1540 H       1  UNL1        0.0000
    119 H           3.1070   -6.3476   -3.7405 H       1  UNL1        0.0000
    120 H          -0.9729   -5.6371   -2.6403 H       1  UNL1        0.0000
    121 H          -0.2337   -4.1108   -0.8433 H       1  UNL1        0.0000
    122 H           2.8881   -2.5290    2.4358 H       1  UNL1        0.0000
    123 H           2.8711   -3.7853    4.5726 H       1  UNL1        0.0000
    124 H           1.7678   -6.1101    0.3426 H       1  UNL1        0.0000
    125 H          -1.6800   -3.0225    2.0693 H       1  UNL1        0.0000
    126 H          -0.5581   -5.1719    2.5588 H       1  UNL1        0.0000
    127 H          -2.6463   -7.0094   -0.6966 H       1  UNL1        0.0000
    128 H          -3.7646   -4.8529   -1.2074 H       1  UNL1        0.0000
    129 H          -4.9290   -4.0161    1.6787 H       1  UNL1        0.0000
    130 H          -6.5572   -3.3897    3.4551 H       1  UNL1        0.0000
    131 H          -5.6570    0.7534    2.8188 H       1  UNL1        0.0000
    132 H          -4.0557    0.1463    1.0512 H       1  UNL1        0.0000
    133 H          -2.4837   -2.9853   -2.4382 H       1  UNL1        0.0000
    134 H          -3.6660   -2.9024   -4.6137 H       1  UNL1        0.0000
    135 H          -7.2451   -1.6346   -2.6337 H       1  UNL1        0.0000
    136 H          -6.0728   -1.7144   -0.4501 H       1  UNL1        0.0000
    137 H          -3.5917    5.2834   -1.7547 H       1  UNL1        0.0000
    138 H          -5.3621    4.9219   -3.4640 H       1  UNL1        0.0000
    139 H          -3.5692    1.0648   -0.9341 H       1  UNL1        0.0000
    140 H          -1.3162    3.9735    2.3593 H       1  UNL1        0.0000
    141 H          -2.4137    4.1461    4.5832 H       1  UNL1        0.0000
    142 H          -6.2183    3.3999    2.7654 H       1  UNL1        0.0000
    143 H          -5.1283    3.2147    0.5429 H       1  UNL1        0.0000
    144 H          -2.6321    6.0041    0.9292 H       1  UNL1        0.0000
    145 H          -1.2952    8.0172    0.3504 H       1  UNL1        0.0000
    146 H          -0.3027    3.6825   -1.8312 H       1  UNL1        0.0000
    147 H           3.8621   -4.8034   -1.9389 H       1  UNL1        0.0000
    148 H          -5.3252    0.7179   -2.6225 H       1  UNL1        0.0000
    149 H           1.0372    5.6950   -2.3818 H       1  UNL1        0.0000
    150 H           1.7494   -7.3506    2.4771 H       1  UNL1        0.0000
@<TRIPOS>BOND
     1     1    13    1
     2     1     9    1
     3     1     7    1
     4     1    11    1
     5     1     2    1
     6     3    14    1
     7     4    65    1
     8     4    12    1
     9     5    10    1
    10     6    27    1
    11     6     8    1
    12     7     6    1
    13     8     2    1
    14     9     5    1
    15    10     2    1
    16    11     4    1
    17    12     2    1
    18    13     3    1
    19    14     2    1
    20    15    56    1
    21    16    50    1
    22    19    43    1
    23    21   100    1
    24    23    88    1
    25    26    81    1
    26    27    28    1
    27    27    34    1
    28    28    33   ar
    29    29    30   ar
    30    29    28   ar
    31    30    31   ar
    32    31    18    1
    33    31    32   ar
    34    32   105    1
    35    33    32   ar
    36    33   106    1
    37    34    39   ar
    38    34    35   ar
    39    35    36   ar
    40    36    37   ar
    41    36   108    1
    42    37    20    1
    43    38   109    1
    44    38    37   ar
    45    39    38   ar
    46    40    27    1
    47    41   111    1
    48    41    40   ar
    49    42    41   ar
    50    43    42   ar
    51    43    44   ar
    52    44    45   ar
    53    45    40   ar
    54    45   114    1
    55    46     5    1
    56    46    59    1
    57    47    46    1
    58    47    52   ar
    59    48    47   ar
    60    49    48   ar
    61    49    50   ar
    62    50    51   ar
    63    51    52   ar
    64    51   117    1
    65    52   118    1
    66    53    46    1
    67    54   147    1
    68    54    53   ar
    69    55    54   ar
    70    56    55   ar
    71    56    57   ar
    72    57    58   ar
    73    58    53   ar
    74    58   121    1
    75    59    64   ar
    76    59    60   ar
    77    60   122    1
    78    60    61   ar
    79    61   123    1
    80    62    61   ar
    81    62    17    1
    82    63   150    1
    83    63    62   ar
    84    64    63   ar
    85    65    66    1
    86    65    72    1
    87    66    67   ar
    88    67    68   ar
    89    67   125    1
    90    68   126    1
    91    69    24    1
    92    69    68   ar
    93    70    69   ar
    94    71    70   ar
    95    71    66   ar
    96    72    77   ar
    97    72    73   ar
    98    73    74   ar
    99    74    75   ar
   100    74   130    1
   101    75    25    1
   102    76   131    1
   103    76    75   ar
   104    77    76   ar
   105    78    65    1
   106    79   133    1
   107    79    78   ar
   108    80    79   ar
   109    81    80   ar
   110    81    82   ar
   111    82    83   ar
   112    83    78   ar
   113    83   136    1
   114    84     3    1
   115    84    91    1
   116    85    84    1
   117    86   137    1
   118    86    85   ar
   119    87    86   ar
   120    88    87   ar
   121    88    89   ar
   122    89    90   ar
   123    90    85   ar
   124    90   139    1
   125    91    96   ar
   126    91    92   ar
   127    92    93   ar
   128    93    94   ar
   129    93   141    1
   130    94    22    1
   131    95   142    1
   132    95    94   ar
   133    96    95   ar
   134    97    84    1
   135    97    98   ar
   136    98   144    1
   137    99    98   ar
   138    99   145    1
   139   100    99   ar
   140   101   102   ar
   141   101   100   ar
   142   102    97   ar
   143   103    29    1
   144   104    30    1
   145   107    35    1
   146   110    39    1
   147   112    42    1
   148   113    44    1
   149   115    48    1
   150   116    49    1
   151   119    55    1
   152   120    57    1
   153   124    64    1
   154   127    70    1
   155   128    71    1
   156   129    73    1
   157   132    77    1
   158   134    80    1
   159   135    82    1
   160   138    87    1
   161   140    92    1
   162   143    96    1
   163   146   102    1
   164   148    89    1
   165   149   101    1
