@<TRIPOS>MOLECULE
RhRh_EtEtiPr-O2C4_3_sp
 114 117 0 0 0
SMALL
GASTEIGER

@<TRIPOS>ATOM
      1 Rh          0.0046    0.0421   -1.2770 Rh      1  UNL1        0.0000
      2 Rh         -0.0575    0.0083    1.1013 Rh      1  UNL1        0.0000
      3 C           0.9910    2.4681   -0.0085 C.3     1  UNL1        0.0000
      4 C           2.4145   -1.0090   -0.0503 C.3     1  UNL1        0.0000
      5 C          -0.9653   -2.4476   -0.1520 C.3     1  UNL1        0.0000
      6 C          -2.4786    1.0238   -0.1283 C.3     1  UNL1        0.0000
      7 O           1.9488   -0.6266   -1.1756 O.3     1  UNL1        0.0000
      8 O           1.8005   -0.8857    1.0586 O.3     1  UNL1        0.0000
      9 O           0.6714    1.9908   -1.1474 O.3     1  UNL1        0.0000
     10 O           0.8170    1.8666    1.1018 O.3     1  UNL1        0.0000
     11 O          -0.6205   -1.9194   -1.2607 O.3     1  UNL1        0.0000
     12 O          -0.9275   -1.8452    0.9695 O.3     1  UNL1        0.0000
     13 O          -1.9544    0.6877   -1.2425 O.3     1  UNL1        0.0000
     14 O          -1.9096    0.8914    1.0029 O.3     1  UNL1        0.0000
     15 C           3.7894   -1.6979   -0.0697 C.3     1  UNL1        0.0000
     16 C           3.6271   -2.9414   -0.9880 C.3     1  UNL1        0.0000
     17 C           2.6018   -3.9687   -0.5052 C.3     1  UNL1        0.0000
     18 C           4.2035   -2.1077    1.3840 C.3     1  UNL1        0.0000
     19 C           5.3618   -3.1167    1.4180 C.3     1  UNL1        0.0000
     20 C           4.5497   -0.9097    2.2835 C.3     1  UNL1        0.0000
     21 C           4.8430   -0.7158   -0.6712 C.3     1  UNL1        0.0000
     22 C           4.8307   -0.4938   -2.1861 C.3     1  UNL1        0.0000
     23 C           1.6871    3.8332    0.0265 C.3     1  UNL1        0.0000
     24 C           1.4155    4.5230    1.3869 C.3     1  UNL1        0.0000
     25 C          -0.0390    4.9206    1.6472 C.3     1  UNL1        0.0000
     26 C           3.2371    3.5724   -0.1208 C.3     1  UNL1        0.0000
     27 C           3.8310    2.7340    1.0213 C.3     1  UNL1        0.0000
     28 C           3.6317    2.9532   -1.4687 C.3     1  UNL1        0.0000
     29 C           1.1536    4.6895   -1.1525 C.3     1  UNL1        0.0000
     30 C           1.7862    6.0758   -1.2910 C.3     1  UNL1        0.0000
     31 C          -1.5038   -3.8835   -0.1673 C.3     1  UNL1        0.0000
     32 C          -1.2492   -4.4874   -1.5786 C.3     1  UNL1        0.0000
     33 C          -1.8112   -5.8942   -1.8015 C.3     1  UNL1        0.0000
     34 C          -3.0515   -3.8176    0.1164 C.3     1  UNL1        0.0000
     35 C          -3.4427   -3.2888    1.5027 C.3     1  UNL1        0.0000
     36 C          -3.8080   -3.0441   -0.9734 C.3     1  UNL1        0.0000
     37 C          -0.7799   -4.8003    0.8801 C.3     1  UNL1        0.0000
     38 C          -0.1535   -4.2148    2.1519 C.3     1  UNL1        0.0000
     39 C          -3.8861    1.6288   -0.1961 C.3     1  UNL1        0.0000
     40 C          -4.7646    0.5613   -0.9222 C.3     1  UNL1        0.0000
     41 C          -6.2305    0.9465   -1.1311 C.3     1  UNL1        0.0000
     42 C          -3.8241    2.9031   -1.1046 C.3     1  UNL1        0.0000
     43 C          -2.5473    3.7495   -1.0561 C.3     1  UNL1        0.0000
     44 C          -4.4915    1.9618    1.2061 C.3     1  UNL1        0.0000
     45 C          -4.6985    0.7341    2.1090 C.3     1  UNL1        0.0000
     46 C          -3.7671    3.0716    1.9842 C.3     1  UNL1        0.0000
     47 H           3.3229   -2.5928   -1.9765 H       1  UNL1        0.0000
     48 H           4.6086   -3.4108   -1.1092 H       1  UNL1        0.0000
     49 H           1.6074   -3.5206   -0.4419 H       1  UNL1        0.0000
     50 H           2.8448   -4.3807    0.4780 H       1  UNL1        0.0000
     51 H           2.5381   -4.8036   -1.2098 H       1  UNL1        0.0000
     52 H           3.3306   -2.5946    1.8294 H       1  UNL1        0.0000
     53 H           5.1100   -4.0666    0.9409 H       1  UNL1        0.0000
     54 H           5.6261   -3.3330    2.4577 H       1  UNL1        0.0000
     55 H           6.2618   -2.7254    0.9317 H       1  UNL1        0.0000
     56 H           4.6901   -1.2531    3.3136 H       1  UNL1        0.0000
     57 H           3.7554   -0.1627    2.2883 H       1  UNL1        0.0000
     58 H           5.4814   -0.4258    1.9738 H       1  UNL1        0.0000
     59 H           4.7380    0.2513   -0.1720 H       1  UNL1        0.0000
     60 H           5.5669    0.2727   -2.4482 H       1  UNL1        0.0000
     61 H           3.8526   -0.1605   -2.5358 H       1  UNL1        0.0000
     62 H           5.0968   -1.4024   -2.7332 H       1  UNL1        0.0000
     63 H           1.7306    3.8527    2.1867 H       1  UNL1        0.0000
     64 H           2.0579    5.4088    1.4482 H       1  UNL1        0.0000
     65 H          -0.1406    5.3414    2.6523 H       1  UNL1        0.0000
     66 H          -0.6971    4.0496    1.5889 H       1  UNL1        0.0000
     67 H          -0.4021    5.6714    0.9396 H       1  UNL1        0.0000
     68 H           3.6934    4.5682   -0.0621 H       1  UNL1        0.0000
     69 H           4.9025    2.5880    0.8526 H       1  UNL1        0.0000
     70 H           3.3629    1.7487    1.0799 H       1  UNL1        0.0000
     71 H           3.7157    3.2101    1.9970 H       1  UNL1        0.0000
     72 H           4.7193    2.8404   -1.5179 H       1  UNL1        0.0000
     73 H           3.3263    3.5696   -2.3172 H       1  UNL1        0.0000
     74 H           3.1865    1.9640   -1.5985 H       1  UNL1        0.0000
     75 H           0.0732    4.8029   -1.0307 H       1  UNL1        0.0000
     76 H           1.3209    6.6157   -2.1214 H       1  UNL1        0.0000
     77 H           2.8588    6.0216   -1.4992 H       1  UNL1        0.0000
     78 H           1.6523    6.6828   -0.3905 H       1  UNL1        0.0000
     79 H          -1.6426   -3.8139   -2.3411 H       1  UNL1        0.0000
     80 H          -0.1665   -4.5057   -1.7378 H       1  UNL1        0.0000
     81 H          -1.5090   -6.2614   -2.7870 H       1  UNL1        0.0000
     82 H          -2.9047   -5.9122   -1.7711 H       1  UNL1        0.0000
     83 H          -1.4459   -6.6102   -1.0594 H       1  UNL1        0.0000
     84 H          -3.3806   -4.8629    0.0758 H       1  UNL1        0.0000
     85 H          -4.5247   -3.3934    1.6354 H       1  UNL1        0.0000
     86 H          -3.1856   -2.2345    1.6219 H       1  UNL1        0.0000
     87 H          -2.9573   -3.8458    2.3068 H       1  UNL1        0.0000
     88 H          -4.8655   -2.9532   -0.7062 H       1  UNL1        0.0000
     89 H          -3.7562   -3.5381   -1.9464 H       1  UNL1        0.0000
     90 H          -3.4089   -2.0335   -1.0972 H       1  UNL1        0.0000
     91 H           0.0184   -5.3277    0.3465 H       1  UNL1        0.0000
     92 H           0.6562   -3.5194    1.9232 H       1  UNL1        0.0000
     93 H           0.2651   -5.0374    2.7425 H       1  UNL1        0.0000
     94 H          -0.8720   -3.6791    2.7726 H       1  UNL1        0.0000
     95 H          -4.2980    0.3641   -1.8909 H       1  UNL1        0.0000
     96 H          -4.7201   -0.3793   -0.3679 H       1  UNL1        0.0000
     97 H          -6.3323    1.8944   -1.6675 H       1  UNL1        0.0000
     98 H          -6.7740    1.0356   -0.1862 H       1  UNL1        0.0000
     99 H          -6.7332    0.1772   -1.7253 H       1  UNL1        0.0000
    100 H          -3.9695    2.5841   -2.1417 H       1  UNL1        0.0000
    101 H          -1.6874    3.1864   -1.4238 H       1  UNL1        0.0000
    102 H          -2.3139    4.1019   -0.0508 H       1  UNL1        0.0000
    103 H          -2.6634    4.6305   -1.6958 H       1  UNL1        0.0000
    104 H          -5.4893    2.3564    0.9764 H       1  UNL1        0.0000
    105 H          -5.2032    1.0387    3.0316 H       1  UNL1        0.0000
    106 H          -3.7447    0.2779    2.3809 H       1  UNL1        0.0000
    107 H          -5.3210   -0.0307    1.6373 H       1  UNL1        0.0000
    108 H          -3.7753    4.0225    1.4466 H       1  UNL1        0.0000
    109 H          -2.7318    2.8000    2.1983 H       1  UNL1        0.0000
    110 H          -4.2763    3.2383    2.9392 H       1  UNL1        0.0000
    111 H           5.8315   -1.0925   -0.3866 H       1  UNL1        0.0000
    112 H          -1.4995   -5.5749    1.1692 H       1  UNL1        0.0000
    113 H          -4.6876    3.5275   -0.8502 H       1  UNL1        0.0000
    114 H           1.2804    4.1318   -2.0812 H       1  UNL1        0.0000
@<TRIPOS>BOND
     1     1    11    1
     2     1    13    1
     3     1     7    1
     4     1     9    1
     5     1     2    1
     6     2    10    1
     7     3    23    1
     8     3    10    1
     9     4     8    1
    10     5    12    1
    11     6    14    1
    12     7     4    1
    13     8     2    1
    14     9     3    1
    15    11     5    1
    16    12     2    1
    17    13     6    1
    18    14     2    1
    19    15     4    1
    20    15    18    1
    21    16    17    1
    22    16    15    1
    23    17    49    1
    24    17    50    1
    25    18    19    1
    26    18    52    1
    27    18    20    1
    28    19    54    1
    29    20    57    1
    30    20    56    1
    31    21   111    1
    32    21    59    1
    33    21    15    1
    34    22    21    1
    35    23    24    1
    36    24    64    1
    37    24    25    1
    38    24    63    1
    39    25    65    1
    40    26    68    1
    41    26    23    1
    42    26    27    1
    43    27    70    1
    44    27    71    1
    45    28    26    1
    46    29    75    1
    47    29    23    1
    48    30    29    1
    49    30    78    1
    50    31     5    1
    51    31    34    1
    52    31    37    1
    53    32    31    1
    54    33    82    1
    55    33    32    1
    56    33    83    1
    57    34    35    1
    58    35    86    1
    59    35    85    1
    60    35    87    1
    61    36    88    1
    62    36    34    1
    63    37   112    1
    64    37    38    1
    65    38    93    1
    66    38    94    1
    67    39     6    1
    68    39    44    1
    69    40    96    1
    70    40    39    1
    71    41    40    1
    72    41    98    1
    73    42    43    1
    74    42   113    1
    75    42    39    1
    76    43   102    1
    77    44    46    1
    78    44    45    1
    79    45   106    1
    80    45   105    1
    81    46   109    1
    82    46   110    1
    83    47    16    1
    84    48    16    1
    85    51    17    1
    86    53    19    1
    87    55    19    1
    88    58    20    1
    89    60    22    1
    90    61    22    1
    91    62    22    1
    92    66    25    1
    93    67    25    1
    94    69    27    1
    95    72    28    1
    96    73    28    1
    97    74    28    1
    98    76    30    1
    99    77    30    1
   100    79    32    1
   101    80    32    1
   102    81    33    1
   103    84    34    1
   104    89    36    1
   105    90    36    1
   106    91    37    1
   107    92    38    1
   108    95    40    1
   109    97    41    1
   110    99    41    1
   111   100    42    1
   112   101    43    1
   113   103    43    1
   114   104    44    1
   115   107    45    1
   116   108    46    1
   117   114    29    1
