@<TRIPOS>MOLECULE
RhRh_ACH4_23_sp
 138 153 0 0 0
SMALL
GASTEIGER

@<TRIPOS>ATOM
      1 Rh          0.2148   -0.5965    0.6740 Rh      1  UNL1        0.0000
      2 Rh          0.0123   -0.8409   -1.6947 Rh      1  UNL1        0.0000
      3 C           1.5617    1.4590   -0.8386 C.3     1  UNL1        0.0000
      4 C           2.3646   -2.0924   -0.5695 C.3     1  UNL1        0.0000
      5 C          -1.2618   -2.9381   -0.1742 C.3     1  UNL1        0.0000
      6 C          -2.0365    0.7823   -0.4854 C.3     1  UNL1        0.0000
      7 O          -1.5378    0.4754    0.6406 O.3     1  UNL1        0.0000
      8 O          -1.6678    0.3352   -1.6137 O.3     1  UNL1        0.0000
      9 O          -0.8114   -2.3732    0.8680 O.3     1  UNL1        0.0000
     10 O          -1.0948   -2.5482   -1.3700 O.3     1  UNL1        0.0000
     11 O           1.7334   -1.9879   -1.6633 O.3     1  UNL1        0.0000
     12 O           1.9933   -1.6404    0.5593 O.3     1  UNL1        0.0000
     13 O           1.1699    0.8485   -1.8795 O.3     1  UNL1        0.0000
     14 O           1.2786    1.1358    0.3581 O.3     1  UNL1        0.0000
     15 N          -3.0382    2.6166    0.7411 N.am    1  UNL1        0.0000
     16 N          -3.4428   -4.0782    0.1086 N.am    1  UNL1        0.0000
     17 N           4.5845   -2.2292    0.3894 N.am    1  UNL1        0.0000
     18 N           1.6179    3.9000   -1.1159 N.am    1  UNL1        0.0000
     19 C          -3.1894    1.8147   -0.4962 C.3     1  UNL1        0.0000
     20 C          -4.5428    1.0706   -0.5807 C.3     1  UNL1        0.0000
     21 C          -5.7449    1.9991   -0.8008 C.3     1  UNL1        0.0000
     22 C          -5.5523    2.9480   -1.9880 C.3     1  UNL1        0.0000
     23 C          -4.2276    3.7060   -1.8609 C.3     1  UNL1        0.0000
     24 C          -3.0565    2.7312   -1.7403 C.3     1  UNL1        0.0000
     25 C          -1.7950    3.2383    0.9798 C.2     1  UNL1        0.0000
     26 C          -1.8272    3.7783    2.3566 C.ar    1  UNL1        0.0000
     27 C          -0.8789    4.5106    3.0573 C.ar    1  UNL1        0.0000
     28 C          -1.2017    4.8606    4.3748 C.ar    1  UNL1        0.0000
     29 C          -2.4199    4.4785    4.9521 C.ar    1  UNL1        0.0000
     30 C          -3.3593    3.7274    4.2341 C.ar    1  UNL1        0.0000
     31 C          -3.0354    3.3901    2.9295 C.ar    1  UNL1        0.0000
     32 C          -3.7996    2.5823    1.9330 C.2     1  UNL1        0.0000
     33 C          -1.9785   -4.3092    0.0197 C.3     1  UNL1        0.0000
     34 C          -1.4911   -4.9735    1.3261 C.3     1  UNL1        0.0000
     35 C          -0.0137   -5.3793    1.2489 C.3     1  UNL1        0.0000
     36 C           0.2598   -6.2767    0.0365 C.3     1  UNL1        0.0000
     37 C          -0.1943   -5.5995   -1.2621 C.3     1  UNL1        0.0000
     38 C          -1.6765   -5.2109   -1.1986 C.3     1  UNL1        0.0000
     39 C          -4.0735   -2.8198    0.1213 C.2     1  UNL1        0.0000
     40 C          -5.5316   -3.0775    0.2623 C.ar    1  UNL1        0.0000
     41 C          -6.5957   -2.1909    0.3251 C.ar    1  UNL1        0.0000
     42 C          -7.8770   -2.7397    0.4629 C.ar    1  UNL1        0.0000
     43 C          -8.0684   -4.1252    0.5344 C.ar    1  UNL1        0.0000
     44 C          -6.9841   -5.0096    0.4724 C.ar    1  UNL1        0.0000
     45 C          -5.7213   -4.4553    0.3354 C.ar    1  UNL1        0.0000
     46 C          -4.3898   -5.1184    0.2503 C.2     1  UNL1        0.0000
     47 C           3.6790   -2.8994   -0.5757 C.3     1  UNL1        0.0000
     48 C           3.3167   -4.3487   -0.1647 C.3     1  UNL1        0.0000
     49 C           4.4927   -5.3279   -0.2579 C.3     1  UNL1        0.0000
     50 C           5.1607   -5.2981   -1.6357 C.3     1  UNL1        0.0000
     51 C           5.5394   -3.8651   -2.0231 C.3     1  UNL1        0.0000
     52 C           4.3191   -2.9418   -1.9815 C.3     1  UNL1        0.0000
     53 C           4.8457   -2.5876    1.7369 C.2     1  UNL1        0.0000
     54 C           5.5804   -1.4362    2.3340 C.ar    1  UNL1        0.0000
     55 C           6.1150   -1.2885    3.6043 C.ar    1  UNL1        0.0000
     56 C           6.7452   -0.0725    3.8960 C.ar    1  UNL1        0.0000
     57 C           6.8293    0.9479    2.9397 C.ar    1  UNL1        0.0000
     58 C           6.2842    0.7872    1.6604 C.ar    1  UNL1        0.0000
     59 C           5.6614   -0.4214    1.3858 C.ar    1  UNL1        0.0000
     60 C           4.9619   -0.8881    0.1643 C.2     1  UNL1        0.0000
     61 C           2.4897    2.6876   -1.0399 C.3     1  UNL1        0.0000
     62 C           3.4846    2.7491    0.1401 C.3     1  UNL1        0.0000
     63 C           4.5577    3.8300   -0.0285 C.3     1  UNL1        0.0000
     64 C           5.3108    3.6838   -1.3546 C.3     1  UNL1        0.0000
     65 C           4.3256    3.6427   -2.5273 C.3     1  UNL1        0.0000
     66 C           3.2982    2.5217   -2.3474 C.3     1  UNL1        0.0000
     67 C           0.7387    4.1337   -2.2108 C.2     1  UNL1        0.0000
     68 C          -0.0775    5.3234   -1.8556 C.ar    1  UNL1        0.0000
     69 C          -1.0929    5.9476   -2.5633 C.ar    1  UNL1        0.0000
     70 C          -1.7485    7.0132   -1.9352 C.ar    1  UNL1        0.0000
     71 C          -1.3842    7.4259   -0.6465 C.ar    1  UNL1        0.0000
     72 C          -0.3563    6.7843    0.0552 C.ar    1  UNL1        0.0000
     73 C           0.2797    5.7280   -0.5773 C.ar    1  UNL1        0.0000
     74 C           1.3290    4.8028   -0.0663 C.2     1  UNL1        0.0000
     75 H          -4.4398    0.3888   -1.4308 H       1  UNL1        0.0000
     76 H          -4.6813    0.4546    0.3041 H       1  UNL1        0.0000
     77 H          -6.6371    1.3787   -0.9519 H       1  UNL1        0.0000
     78 H          -5.9235    2.5764    0.1102 H       1  UNL1        0.0000
     79 H          -6.3958    3.6447   -2.0545 H       1  UNL1        0.0000
     80 H          -5.5419    2.3722   -2.9238 H       1  UNL1        0.0000
     81 H          -4.0658    4.3542   -2.7294 H       1  UNL1        0.0000
     82 H          -4.2548    4.3641   -0.9822 H       1  UNL1        0.0000
     83 H          -2.1040    3.2548   -1.7158 H       1  UNL1        0.0000
     84 H          -3.0325    2.0711   -2.6111 H       1  UNL1        0.0000
     85 H          -0.4920    5.4327    4.9640 H       1  UNL1        0.0000
     86 H          -2.6340    4.7635    5.9774 H       1  UNL1        0.0000
     87 H          -4.2995    3.4128    4.6736 H       1  UNL1        0.0000
     88 H          -1.6612   -4.2850    2.1566 H       1  UNL1        0.0000
     89 H          -2.1051   -5.8635    1.4853 H       1  UNL1        0.0000
     90 H           0.6065   -4.4786    1.1928 H       1  UNL1        0.0000
     91 H           0.2650   -5.8924    2.1756 H       1  UNL1        0.0000
     92 H          -0.2825   -7.2243    0.1563 H       1  UNL1        0.0000
     93 H           1.3247   -6.5287   -0.0153 H       1  UNL1        0.0000
     94 H          -0.0363   -6.2652   -2.1177 H       1  UNL1        0.0000
     95 H           0.4080   -4.7027   -1.4501 H       1  UNL1        0.0000
     96 H          -2.2840   -6.1127   -1.0985 H       1  UNL1        0.0000
     97 H          -1.9817   -4.6877   -2.1070 H       1  UNL1        0.0000
     98 H          -6.4371   -1.1196    0.2746 H       1  UNL1        0.0000
     99 H          -8.7375   -2.0806    0.5174 H       1  UNL1        0.0000
    100 H          -9.0745   -4.5177    0.6417 H       1  UNL1        0.0000
    101 H           2.5403   -4.6553   -0.8731 H       1  UNL1        0.0000
    102 H           2.8811   -4.3623    0.8324 H       1  UNL1        0.0000
    103 H           4.1227   -6.3345   -0.0314 H       1  UNL1        0.0000
    104 H           5.2236   -5.0871    0.5190 H       1  UNL1        0.0000
    105 H           6.0435   -5.9473   -1.6421 H       1  UNL1        0.0000
    106 H           4.4678   -5.6988   -2.3885 H       1  UNL1        0.0000
    107 H           5.9747   -3.8396   -3.0279 H       1  UNL1        0.0000
    108 H           6.3108   -3.4887   -1.3382 H       1  UNL1        0.0000
    109 H           4.5676   -1.9337   -2.3075 H       1  UNL1        0.0000
    110 H           3.5487   -3.3160   -2.6617 H       1  UNL1        0.0000
    111 H           7.1744    0.0858    4.8802 H       1  UNL1        0.0000
    112 H           7.3229    1.8793    3.1977 H       1  UNL1        0.0000
    113 H           6.3407    1.5713    0.9141 H       1  UNL1        0.0000
    114 H           3.9647    1.7684    0.1461 H       1  UNL1        0.0000
    115 H           2.9554    2.8649    1.0809 H       1  UNL1        0.0000
    116 H           5.2511    3.7677    0.8194 H       1  UNL1        0.0000
    117 H           4.0979    4.8214    0.0321 H       1  UNL1        0.0000
    118 H           6.0305    4.5014   -1.4794 H       1  UNL1        0.0000
    119 H           5.8859    2.7472   -1.3479 H       1  UNL1        0.0000
    120 H           3.8109    4.6093   -2.6102 H       1  UNL1        0.0000
    121 H           4.8579    3.4916   -3.4729 H       1  UNL1        0.0000
    122 H           2.6237    2.4576   -3.1966 H       1  UNL1        0.0000
    123 H           3.8167    1.5623   -2.2645 H       1  UNL1        0.0000
    124 H          -1.3686    5.6074   -3.5554 H       1  UNL1        0.0000
    125 H          -2.5543    7.5266   -2.4501 H       1  UNL1        0.0000
    126 H          -1.9137    8.2532   -0.1845 H       1  UNL1        0.0000
    127 O          -4.8590    2.0199    2.1218 O.2     1  UNL1        0.0000
    128 O          -0.8781    3.2710    0.1830 O.2     1  UNL1        0.0000
    129 O          -3.5120   -1.7475    0.0334 O.2     1  UNL1        0.0000
    130 O          -4.1536   -6.3096    0.2984 O.2     1  UNL1        0.0000
    131 O           4.5479   -3.6205    2.2986 O.2     1  UNL1        0.0000
    132 O           4.7095   -0.2429   -0.8373 O.2     1  UNL1        0.0000
    133 O           1.8331    4.8506    1.0404 O.2     1  UNL1        0.0000
    134 O           0.6556    3.4830   -3.2306 O.2     1  UNL1        0.0000
    135 H           0.0695    4.7808    2.6035 H       1  UNL1        0.0000
    136 H          -7.1169   -6.0844    0.5293 H       1  UNL1        0.0000
    137 H           6.0384   -2.0854    4.3358 H       1  UNL1        0.0000
    138 H          -0.0752    7.0849    1.0585 H       1  UNL1        0.0000
@<TRIPOS>BOND
     1     1     9    1
     2     2    11    1
     3     2     8    1
     4     2    10    1
     5     2     1    1
     6     3    14    1
     7     4    12    1
     8     5    33    1
     9     5     9    1
    10     6     7    1
    11     7     1    1
    12     8     6    1
    13    10     5    1
    14    11     4    1
    15    12     1    1
    16    13     2    1
    17    13     3    1
    18    14     1    1
    19    15    25   am
    20    15    32   am
    21    16    39   am
    22    16    46   am
    23    17    53   am
    24    18    61    1
    25    18    74   am
    26    19     6    1
    27    19    15    1
    28    20    19    1
    29    20    76    1
    30    21    20    1
    31    21    78    1
    32    22    23    1
    33    22    21    1
    34    23    24    1
    35    23    82    1
    36    24    83    1
    37    24    19    1
    38    25    26    1
    39    26    31   ar
    40    26    27   ar
    41    27    28   ar
    42    28    29   ar
    43    28    85    1
    44    29    86    1
    45    30    87    1
    46    30    29   ar
    47    31    30   ar
    48    32   127    2
    49    32    31    1
    50    33    16    1
    51    33    34    1
    52    34    89    1
    53    34    88    1
    54    35    34    1
    55    35    91    1
    56    36    92    1
    57    36    35    1
    58    37    38    1
    59    37    36    1
    60    38    96    1
    61    38    33    1
    62    39    40    1
    63    40    41   ar
    64    40    45   ar
    65    41    42   ar
    66    42    99    1
    67    42    43   ar
    68    43   100    1
    69    44   136    1
    70    44    43   ar
    71    45    44   ar
    72    46   130    2
    73    46    45    1
    74    47     4    1
    75    47    48    1
    76    47    17    1
    77    48   102    1
    78    49    48    1
    79    49   103    1
    80    49   104    1
    81    50    49    1
    82    51    52    1
    83    51    50    1
    84    51   108    1
    85    52    47    1
    86    53   131    2
    87    53    54    1
    88    54    55   ar
    89    55    56   ar
    90    55   137    1
    91    56   111    1
    92    57   112    1
    93    57    56   ar
    94    58    57   ar
    95    59    58   ar
    96    59    54   ar
    97    60    17   am
    98    60    59    1
    99    61     3    1
   100    61    62    1
   101    62   114    1
   102    62   115    1
   103    63   117    1
   104    63    62    1
   105    63   116    1
   106    64   119    1
   107    64    63    1
   108    65    66    1
   109    65    64    1
   110    66   123    1
   111    66    61    1
   112    67    68    1
   113    67    18   am
   114    68    73   ar
   115    69    70   ar
   116    69    68   ar
   117    70    71   ar
   118    71   126    1
   119    71    72   ar
   120    72   138    1
   121    73    74    1
   122    73    72   ar
   123    74   133    2
   124    75    20    1
   125    77    21    1
   126    79    22    1
   127    80    22    1
   128    81    23    1
   129    84    24    1
   130    90    35    1
   131    93    36    1
   132    94    37    1
   133    95    37    1
   134    97    38    1
   135    98    41    1
   136   101    48    1
   137   105    50    1
   138   106    50    1
   139   107    51    1
   140   109    52    1
   141   110    52    1
   142   113    58    1
   143   118    64    1
   144   120    65    1
   145   121    65    1
   146   122    66    1
   147   124    69    1
   148   125    70    1
   149   128    25    2
   150   129    39    2
   151   132    60    2
   152   134    67    2
   153   135    27    1
