@<TRIPOS>MOLECULE
RhRh_anthracenyl-O2C4_4_sp
 106 121 0 0 0
SMALL
GASTEIGER

@<TRIPOS>ATOM
      1 Rh          0.0104   -0.2372    1.1726 Rh      1  UNL1        0.0000
      2 Rh         -0.0102    0.2362   -1.1729 Rh      1  UNL1        0.0000
      3 C          -1.8694    1.8103    0.4122 C.3     1  UNL1        0.0000
      4 C           2.0330    1.6488    0.3214 C.3     1  UNL1        0.0000
      5 C           1.8698   -1.8111   -0.4125 C.3     1  UNL1        0.0000
      6 C          -2.0331   -1.6495   -0.3216 C.3     1  UNL1        0.0000
      7 O          -1.5432   -1.1211   -1.3708 O.3     1  UNL1        0.0000
      8 O          -1.5502   -1.5332    0.8559 O.3     1  UNL1        0.0000
      9 O          -1.4326    1.6733   -0.7796 O.3     1  UNL1        0.0000
     10 O          -1.4090    1.2242    1.4421 O.3     1  UNL1        0.0000
     11 O           1.5433    1.1203    1.3705 O.3     1  UNL1        0.0000
     12 O           1.5505    1.5321   -0.8562 O.3     1  UNL1        0.0000
     13 O           1.4330   -1.6741    0.7793 O.3     1  UNL1        0.0000
     14 O           1.4092   -1.2253   -1.4424 O.3     1  UNL1        0.0000
     15 C          -3.2953   -2.4299   -0.4514 C.ar    1  UNL1        0.0000
     16 C          -3.3684   -3.7288    0.1018 C.ar    1  UNL1        0.0000
     17 C          -4.6148   -4.4496    0.0190 C.ar    1  UNL1        0.0000
     18 C          -5.7292   -3.8267   -0.5491 C.ar    1  UNL1        0.0000
     19 C          -5.6713   -2.5303   -1.0665 C.ar    1  UNL1        0.0000
     20 C          -6.8365   -1.8921   -1.5924 C.ar    1  UNL1        0.0000
     21 C          -5.5439    0.0875   -2.0842 C.ar    1  UNL1        0.0000
     22 C          -6.7793   -0.6165   -2.0820 C.ar    1  UNL1        0.0000
     23 C          -4.4024   -0.4879   -1.5946 C.ar    1  UNL1        0.0000
     24 C          -4.4177   -1.8143   -1.0551 C.ar    1  UNL1        0.0000
     25 C          -3.0556    2.7002    0.5744 C.ar    1  UNL1        0.0000
     26 C          -2.9409    4.0657    0.2504 C.ar    1  UNL1        0.0000
     27 C          -4.1239    4.8891    0.2739 C.ar    1  UNL1        0.0000
     28 C          -5.3564    4.3041    0.5804 C.ar    1  UNL1        0.0000
     29 C          -5.4716    2.9505    0.9122 C.ar    1  UNL1        0.0000
     30 C          -6.7374    2.3567    1.2055 C.ar    1  UNL1        0.0000
     31 C          -6.8352    1.0311    1.5312 C.ar    1  UNL1        0.0000
     32 C          -5.6656    0.2250    1.6010 C.ar    1  UNL1        0.0000
     33 C          -4.4329    0.7515    1.3232 C.ar    1  UNL1        0.0000
     34 C          -4.2882    2.1246    0.9496 C.ar    1  UNL1        0.0000
     35 C           3.2948    2.4299    0.4514 C.ar    1  UNL1        0.0000
     36 C           3.3670    3.7290   -0.1015 C.ar    1  UNL1        0.0000
     37 C           4.6129    4.4508   -0.0180 C.ar    1  UNL1        0.0000
     38 C           5.7275    3.8286    0.5503 C.ar    1  UNL1        0.0000
     39 C           5.6705    2.5319    1.0673 C.ar    1  UNL1        0.0000
     40 C           6.8359    1.8944    1.5935 C.ar    1  UNL1        0.0000
     41 C           5.5446   -0.0862    2.0844 C.ar    1  UNL1        0.0000
     42 C           6.7795    0.6187    2.0828 C.ar    1  UNL1        0.0000
     43 C           4.4029    0.4885    1.5945 C.ar    1  UNL1        0.0000
     44 C           4.4174    1.8150    1.0553 C.ar    1  UNL1        0.0000
     45 C           3.0562   -2.7006   -0.5747 C.ar    1  UNL1        0.0000
     46 C           2.9420   -4.0662   -0.2507 C.ar    1  UNL1        0.0000
     47 C           4.1253   -4.8892   -0.2744 C.ar    1  UNL1        0.0000
     48 C           5.3576   -4.3038   -0.5809 C.ar    1  UNL1        0.0000
     49 C           5.4723   -2.9502   -0.9127 C.ar    1  UNL1        0.0000
     50 C           6.7379   -2.3560   -1.2061 C.ar    1  UNL1        0.0000
     51 C           6.8352   -1.0304   -1.5318 C.ar    1  UNL1        0.0000
     52 C           5.6654   -0.2246   -1.6014 C.ar    1  UNL1        0.0000
     53 C           4.4329   -0.7515   -1.3234 C.ar    1  UNL1        0.0000
     54 C           4.2886   -2.1246   -0.9499 C.ar    1  UNL1        0.0000
     55 C          -1.6141    6.0229   -0.3300 C.ar    1  UNL1        0.0000
     56 C           1.6914   -4.6836    0.0618 C.ar    1  UNL1        0.0000
     57 C           4.0040   -6.2803    0.0274 C.ar    1  UNL1        0.0000
     58 C           2.7872   -6.8340    0.3198 C.ar    1  UNL1        0.0000
     59 C           1.6159   -6.0238    0.3299 C.ar    1  UNL1        0.0000
     60 C           2.2567    4.3827   -0.7242 C.ar    1  UNL1        0.0000
     61 C           4.6872    5.7794   -0.5379 C.ar    1  UNL1        0.0000
     62 C           2.3718    5.6561   -1.2156 C.ar    1  UNL1        0.0000
     63 C           3.5991    6.3700   -1.1193 C.ar    1  UNL1        0.0000
     64 C          -4.6899   -5.7780    0.5393 C.ar    1  UNL1        0.0000
     65 C          -3.6022   -6.3693    1.1206 C.ar    1  UNL1        0.0000
     66 C          -2.3742   -5.6563    1.2161 C.ar    1  UNL1        0.0000
     67 C          -2.2583   -4.3832    0.7242 C.ar    1  UNL1        0.0000
     68 C          -2.7851    6.8334   -0.3201 C.ar    1  UNL1        0.0000
     69 C          -1.6900    4.6827   -0.0619 C.ar    1  UNL1        0.0000
     70 C          -4.0022    6.2801   -0.0279 C.ar    1  UNL1        0.0000
     71 H          -6.6737   -4.3642   -0.5804 H       1  UNL1        0.0000
     72 H          -7.7713   -2.4454   -1.5862 H       1  UNL1        0.0000
     73 H          -5.5072    1.1030   -2.4651 H       1  UNL1        0.0000
     74 H          -7.6725   -0.1368   -2.4696 H       1  UNL1        0.0000
     75 H          -3.4789    0.0732   -1.6020 H       1  UNL1        0.0000
     76 H          -6.2517    4.9205    0.5638 H       1  UNL1        0.0000
     77 H          -7.6224    2.9852    1.1614 H       1  UNL1        0.0000
     78 H          -7.8037    0.5896    1.7433 H       1  UNL1        0.0000
     79 H          -5.7523   -0.8247    1.8616 H       1  UNL1        0.0000
     80 H          -3.5543    0.1237    1.3895 H       1  UNL1        0.0000
     81 H           6.6717    4.3667    0.5821 H       1  UNL1        0.0000
     82 H           7.7703    2.4484    1.5877 H       1  UNL1        0.0000
     83 H           5.5085   -1.1018    2.4650 H       1  UNL1        0.0000
     84 H           7.6729    0.1396    2.4705 H       1  UNL1        0.0000
     85 H           3.4798   -0.0732    1.6015 H       1  UNL1        0.0000
     86 H           6.2531   -4.9200   -0.5645 H       1  UNL1        0.0000
     87 H           7.6231   -2.9843   -1.1621 H       1  UNL1        0.0000
     88 H           7.8036   -0.5886   -1.7439 H       1  UNL1        0.0000
     89 H           5.7518    0.8251   -1.8618 H       1  UNL1        0.0000
     90 H           3.5541   -0.1240   -1.3897 H       1  UNL1        0.0000
     91 H          -0.6499    6.4747   -0.5408 H       1  UNL1        0.0000
     92 H          -3.6706   -7.3782    1.5148 H       1  UNL1        0.0000
     93 H          -1.5198   -6.1244    1.6955 H       1  UNL1        0.0000
     94 H          -1.3234   -3.8494    0.8283 H       1  UNL1        0.0000
     95 H          -5.6359   -6.3065    0.4632 H       1  UNL1        0.0000
     96 H           4.9022   -6.8911    0.0109 H       1  UNL1        0.0000
     97 H           0.7926   -4.0789    0.0680 H       1  UNL1        0.0000
     98 H          -2.7046    7.8933   -0.5398 H       1  UNL1        0.0000
     99 H          -0.7914    4.0778   -0.0678 H       1  UNL1        0.0000
    100 H          -4.9002    6.8912   -0.0116 H       1  UNL1        0.0000
    101 H           5.6327    6.3086   -0.4613 H       1  UNL1        0.0000
    102 H           3.6669    7.3791   -1.5132 H       1  UNL1        0.0000
    103 H           2.7070   -7.8939    0.5394 H       1  UNL1        0.0000
    104 H           0.6519   -6.4758    0.5409 H       1  UNL1        0.0000
    105 H           1.5173    6.1236   -1.6953 H       1  UNL1        0.0000
    106 H           1.3223    3.8481   -0.8290 H       1  UNL1        0.0000
@<TRIPOS>BOND
     1     1    11    1
     2     1    10    1
     3     2    12    1
     4     2     9    1
     5     2     1    1
     6     3    25    1
     7     3    10    1
     8     4    35    1
     9     4    11    1
    10     5    13    1
    11     6     8    1
    12     7     2    1
    13     7     6    1
    14     8     1    1
    15     9     3    1
    16    12     4    1
    17    13     1    1
    18    14     2    1
    19    14     5    1
    20    15     6    1
    21    15    16   ar
    22    16    67   ar
    23    17    16   ar
    24    17    64   ar
    25    18    17   ar
    26    19    24   ar
    27    19    18   ar
    28    20    72    1
    29    20    19   ar
    30    21    22   ar
    31    21    23   ar
    32    22    20   ar
    33    23    24   ar
    34    24    15   ar
    35    25    34   ar
    36    26    27   ar
    37    26    25   ar
    38    27    28   ar
    39    28    29   ar
    40    29    34   ar
    41    29    30   ar
    42    30    31   ar
    43    31    32   ar
    44    31    78    1
    45    32    79    1
    46    33    80    1
    47    33    32   ar
    48    34    33   ar
    49    35    44   ar
    50    36    37   ar
    51    36    35   ar
    52    37    38   ar
    53    38    81    1
    54    38    39   ar
    55    39    40   ar
    56    40    42   ar
    57    41    83    1
    58    42    41   ar
    59    42    84    1
    60    43    85    1
    61    43    41   ar
    62    44    39   ar
    63    44    43   ar
    64    45     5    1
    65    45    46   ar
    66    46    56   ar
    67    47    46   ar
    68    47    57   ar
    69    48    86    1
    70    48    47   ar
    71    49    48   ar
    72    50    87    1
    73    50    49   ar
    74    51    50   ar
    75    52    51   ar
    76    52    53   ar
    77    53    54   ar
    78    54    49   ar
    79    54    45   ar
    80    55    68   ar
    81    55    69   ar
    82    56    97    1
    83    56    59   ar
    84    57    58   ar
    85    58    59   ar
    86    58   103    1
    87    59   104    1
    88    60    36   ar
    89    61   101    1
    90    61    37   ar
    91    62    63   ar
    92    62    60   ar
    93    63    61   ar
    94    64    65   ar
    95    65    66   ar
    96    65    92    1
    97    66    93    1
    98    67    94    1
    99    67    66   ar
   100    68    70   ar
   101    69    26   ar
   102    70   100    1
   103    70    27   ar
   104    71    18    1
   105    73    21    1
   106    74    22    1
   107    75    23    1
   108    76    28    1
   109    77    30    1
   110    82    40    1
   111    88    51    1
   112    89    52    1
   113    90    53    1
   114    91    55    1
   115    95    64    1
   116    96    57    1
   117    98    68    1
   118    99    69    1
   119   102    63    1
   120   105    62    1
   121   106    60    1
