@<TRIPOS>MOLECULE
RhRh_cis-Cy-fused-Hback-S-PTV4_18_sp
 146 157 0 0 0
SMALL
GASTEIGER

@<TRIPOS>ATOM
      1 Rh         -0.0909    0.0231    0.0765 Rh      1  UNL1        0.0000
      2 Rh         -0.0355    0.0406   -2.3161 Rh      1  UNL1        0.0000
      3 C           1.4816   -2.0842   -1.1020 C.3     1  UNL1        0.0000
      4 C          -1.6058    2.1441   -1.1269 C.3     1  UNL1        0.0000
      5 C           2.0718    1.5447   -1.0627 C.3     1  UNL1        0.0000
      6 C          -2.1752   -1.5141   -1.1671 C.3     1  UNL1        0.0000
      7 O          -1.7060   -1.2117   -0.0215 O.3     1  UNL1        0.0000
      8 O          -1.6755   -1.2031   -2.2859 O.3     1  UNL1        0.0000
      9 O           1.1704   -1.5809    0.0277 O.3     1  UNL1        0.0000
     10 O           1.1912   -1.6098   -2.2369 O.3     1  UNL1        0.0000
     11 O           1.5330    1.2490    0.0524 O.3     1  UNL1        0.0000
     12 O           1.6189    1.2666   -2.2092 O.3     1  UNL1        0.0000
     13 O          -1.3375    1.6292    0.0057 O.3     1  UNL1        0.0000
     14 O          -1.2626    1.6912   -2.2565 O.3     1  UNL1        0.0000
     15 N          -4.3529   -1.6311   -0.1669 N.am    1  UNL1        0.0000
     16 N           1.6310   -4.1928    0.0246 N.am    1  UNL1        0.0000
     17 N           4.1254    1.5528    0.1406 N.am    1  UNL1        0.0000
     18 N          -1.8362    4.2202    0.0398 N.am    1  UNL1        0.0000
     19 C          -4.5163   -0.2407   -0.1369 C.2     1  UNL1        0.0000
     20 C          -4.8127   -2.2442    1.0014 C.2     1  UNL1        0.0000
     21 C           0.2512   -4.4136    0.0683 C.2     1  UNL1        0.0000
     22 C           2.2378   -4.4203    1.2688 C.2     1  UNL1        0.0000
     23 C           4.3750    2.1282    1.3898 C.2     1  UNL1        0.0000
     24 C           4.2866    0.1667    0.1458 C.2     1  UNL1        0.0000
     25 C          -0.4748    4.5057    0.1305 C.2     1  UNL1        0.0000
     26 C          -2.5318    4.4910    1.2137 C.2     1  UNL1        0.0000
     27 C          -3.4609   -2.3346   -1.0962 C.3     1  UNL1        0.0000
     28 C          -4.1263   -2.7614   -2.4167 C.3     1  UNL1        0.0000
     29 C          -4.6147   -1.6059   -3.2965 C.3     1  UNL1        0.0000
     30 C          -3.2026   -3.7160   -3.1885 C.3     1  UNL1        0.0000
     31 C           2.2961   -3.3727   -0.9940 C.3     1  UNL1        0.0000
     32 C           2.6528   -4.1224   -2.2904 C.3     1  UNL1        0.0000
     33 C           3.6018   -3.2722   -3.1489 C.3     1  UNL1        0.0000
     34 C           1.4544   -4.6254   -3.1031 C.3     1  UNL1        0.0000
     35 C           3.4181    2.2607   -0.9259 C.3     1  UNL1        0.0000
     36 C           4.2175    2.4030   -2.2336 C.3     1  UNL1        0.0000
     37 C           3.5680    3.4742   -3.1195 C.3     1  UNL1        0.0000
     38 C           5.6798    2.7534   -1.9368 C.3     1  UNL1        0.0000
     39 C          -2.4173    3.4368   -1.0491 C.3     1  UNL1        0.0000
     40 C          -2.5513    4.2056   -2.3768 C.3     1  UNL1        0.0000
     41 C          -3.5184    3.4617   -3.3082 C.3     1  UNL1        0.0000
     42 C          -3.0403    5.6367   -2.1256 C.3     1  UNL1        0.0000
     43 C          -1.4699    4.2122    3.4651 C.3     1  UNL1        0.0000
     44 C          -1.5655    5.1126    2.2156 C.3     1  UNL1        0.0000
     45 C          -0.2239    5.2279    1.4483 C.3     1  UNL1        0.0000
     46 C           0.9799    4.6610    2.2150 C.3     1  UNL1        0.0000
     47 C           0.7611    3.2129    2.6919 C.3     1  UNL1        0.0000
     48 C          -0.6934    2.9285    3.1488 C.3     1  UNL1        0.0000
     49 C           6.5814    1.2590    2.1442 C.3     1  UNL1        0.0000
     50 C           5.4569   -1.4880    1.7490 C.3     1  UNL1        0.0000
     51 C           6.9442   -1.1675    1.5812 C.3     1  UNL1        0.0000
     52 C           7.3580   -0.0116    2.4993 C.3     1  UNL1        0.0000
     53 C           4.5693   -0.2546    1.5794 C.3     1  UNL1        0.0000
     54 C           5.0478    1.0587    2.2387 C.3     1  UNL1        0.0000
     55 C          -1.6220   -3.6256    2.6284 C.3     1  UNL1        0.0000
     56 C          -1.4582   -4.9641    1.9044 C.3     1  UNL1        0.0000
     57 C           0.8506   -3.4573    3.0503 C.3     1  UNL1        0.0000
     58 C          -0.5373   -3.4514    3.6956 C.3     1  UNL1        0.0000
     59 C          -0.0462   -5.1771    1.3518 C.3     1  UNL1        0.0000
     60 C           1.1346   -4.7630    2.2580 C.3     1  UNL1        0.0000
     61 C          -4.1047    0.6169    3.5445 C.3     1  UNL1        0.0000
     62 C          -3.8854    0.7118    2.0353 C.3     1  UNL1        0.0000
     63 C          -5.5969   -1.3990    3.2953 C.3     1  UNL1        0.0000
     64 C          -4.3330   -0.8407    3.9570 C.3     1  UNL1        0.0000
     65 C          -5.6168   -1.2048    1.7754 C.3     1  UNL1        0.0000
     66 C          -5.0765    0.1334    1.2241 C.3     1  UNL1        0.0000
     67 H          -3.1766   -3.2457   -0.5597 H       1  UNL1        0.0000
     68 H          -5.1110   -2.0088   -4.1855 H       1  UNL1        0.0000
     69 H          -3.7801   -0.9806   -3.6183 H       1  UNL1        0.0000
     70 H          -5.3263   -0.9662   -2.7707 H       1  UNL1        0.0000
     71 H          -2.8352   -4.5239   -2.5482 H       1  UNL1        0.0000
     72 H          -2.3343   -3.1840   -3.5823 H       1  UNL1        0.0000
     73 H          -3.7442   -4.1619   -4.0282 H       1  UNL1        0.0000
     74 H           3.2362   -3.0643   -0.5259 H       1  UNL1        0.0000
     75 H           3.0767   -2.4162   -3.5773 H       1  UNL1        0.0000
     76 H           4.0042   -3.8758   -3.9681 H       1  UNL1        0.0000
     77 H           4.4403   -2.8882   -2.5600 H       1  UNL1        0.0000
     78 H           0.8240   -3.7945   -3.4254 H       1  UNL1        0.0000
     79 H           0.8304   -5.3141   -2.5304 H       1  UNL1        0.0000
     80 H           1.8141   -5.1539   -3.9920 H       1  UNL1        0.0000
     81 H           3.2055    3.2533   -0.5123 H       1  UNL1        0.0000
     82 H           2.5202    3.2457   -3.3211 H       1  UNL1        0.0000
     83 H           4.0948    3.5446   -4.0760 H       1  UNL1        0.0000
     84 H           3.6179    4.4566   -2.6354 H       1  UNL1        0.0000
     85 H           6.1918    1.9424   -1.4123 H       1  UNL1        0.0000
     86 H           5.7524    3.6567   -1.3200 H       1  UNL1        0.0000
     87 H           6.2182    2.9404   -2.8706 H       1  UNL1        0.0000
     88 H          -3.4128    3.1494   -0.6923 H       1  UNL1        0.0000
     89 H          -4.5255    3.4391   -2.8761 H       1  UNL1        0.0000
     90 H          -3.2000    2.4329   -3.4798 H       1  UNL1        0.0000
     91 H          -3.5786    3.9716   -4.2746 H       1  UNL1        0.0000
     92 H          -2.3140    6.2245   -1.5580 H       1  UNL1        0.0000
     93 H          -3.9842    5.6367   -1.5685 H       1  UNL1        0.0000
     94 H          -3.2118    6.1468   -3.0780 H       1  UNL1        0.0000
     95 H          -5.0050   -3.3375   -2.0950 H       1  UNL1        0.0000
     96 H           3.2167   -4.9980   -1.9405 H       1  UNL1        0.0000
     97 H           4.1819    1.4393   -2.7504 H       1  UNL1        0.0000
     98 H          -1.5613    4.2428   -2.8424 H       1  UNL1        0.0000
     99 H          -1.9639    6.0911    2.5008 H       1  UNL1        0.0000
    100 H          -0.6958    2.2717    4.0256 H       1  UNL1        0.0000
    101 H          -2.4849    3.9840    3.8039 H       1  UNL1        0.0000
    102 H           1.8752    4.7098    1.5911 H       1  UNL1        0.0000
    103 H           1.1581    5.3182    3.0734 H       1  UNL1        0.0000
    104 H           1.4642    3.0172    3.5081 H       1  UNL1        0.0000
    105 H           1.0303    2.5323    1.8823 H       1  UNL1        0.0000
    106 H          -1.2249    2.3879    2.3581 H       1  UNL1        0.0000
    107 H          -0.9759    4.7692    4.2691 H       1  UNL1        0.0000
    108 H          -0.0185    6.2731    1.1877 H       1  UNL1        0.0000
    109 H           8.4326    0.1841    2.4151 H       1  UNL1        0.0000
    110 H           6.8663    2.1014    2.7813 H       1  UNL1        0.0000
    111 H           5.2887   -1.8955    2.7525 H       1  UNL1        0.0000
    112 H           5.1296   -2.2613    1.0498 H       1  UNL1        0.0000
    113 H           7.1494   -0.8924    0.5373 H       1  UNL1        0.0000
    114 H           7.5396   -2.0615    1.7934 H       1  UNL1        0.0000
    115 H           7.1669   -0.2877    3.5454 H       1  UNL1        0.0000
    116 H           6.8403    1.5440    1.1160 H       1  UNL1        0.0000
    117 H           3.5657   -0.4890    1.9635 H       1  UNL1        0.0000
    118 H           4.7228    1.1488    3.2778 H       1  UNL1        0.0000
    119 H          -1.6770   -5.7794    2.6046 H       1  UNL1        0.0000
    120 H          -2.1788   -5.0449    1.0862 H       1  UNL1        0.0000
    121 H          -0.6784   -2.5092    4.2383 H       1  UNL1        0.0000
    122 H          -2.6220   -3.5811    3.0680 H       1  UNL1        0.0000
    123 H           0.9122   -2.6101    2.3561 H       1  UNL1        0.0000
    124 H           1.6472   -3.3224    3.7879 H       1  UNL1        0.0000
    125 H          -0.6120   -4.2577    4.4385 H       1  UNL1        0.0000
    126 H          -1.5615   -2.8062    1.9022 H       1  UNL1        0.0000
    127 H           0.0755   -6.2370    1.0879 H       1  UNL1        0.0000
    128 H           1.4495   -5.5569    2.9392 H       1  UNL1        0.0000
    129 H          -3.7211    1.7421    1.7156 H       1  UNL1        0.0000
    130 H          -2.9792    0.1515    1.7783 H       1  UNL1        0.0000
    131 H          -3.4621   -1.4392    3.6587 H       1  UNL1        0.0000
    132 H          -4.9681    1.2274    3.8422 H       1  UNL1        0.0000
    133 H          -5.7114   -2.4670    3.5053 H       1  UNL1        0.0000
    134 H          -6.4709   -0.8901    3.7189 H       1  UNL1        0.0000
    135 H          -4.4212   -0.9310    5.0451 H       1  UNL1        0.0000
    136 H          -3.2315    1.0326    4.0600 H       1  UNL1        0.0000
    137 H          -6.6491   -1.3343    1.4219 H       1  UNL1        0.0000
    138 H          -5.8553    0.8928    1.1225 H       1  UNL1        0.0000
    139 O           4.1392    3.2844    1.6766 O.2     1  UNL1        0.0000
    140 O           4.1325   -0.5427   -0.8313 O.2     1  UNL1        0.0000
    141 O          -0.5358   -4.0529   -0.7853 O.2     1  UNL1        0.0000
    142 O           3.4177   -4.2460    1.4962 O.2     1  UNL1        0.0000
    143 O          -4.6127   -3.4061    1.2944 O.2     1  UNL1        0.0000
    144 O          -4.1512    0.5123   -1.0193 O.2     1  UNL1        0.0000
    145 O           0.3395    4.2066   -0.7225 O.2     1  UNL1        0.0000
    146 O          -3.7045    4.2217    1.3935 O.2     1  UNL1        0.0000
@<TRIPOS>BOND
     1     2     8    1
     2     2    14    1
     3     2    10    1
     4     2    12    1
     5     2     1    1
     6     3    31    1
     7     3     9    1
     8     4    39    1
     9     4    13    1
    10     5    35    1
    11     5    11    1
    12     6    27    1
    13     6     7    1
    14     7     1    1
    15     8     6    1
    16     9     1    1
    17    10     3    1
    18    11     1    1
    19    12     5    1
    20    13     1    1
    21    14     4    1
    22    15    19   am
    23    15    20   am
    24    16    21   am
    25    16    22   am
    26    17    24   am
    27    17    23   am
    28    18    25   am
    29    18    26   am
    30    19    66    1
    31    20   143    2
    32    20    65    1
    33    21    59    1
    34    22   142    2
    35    22    60    1
    36    23   139    2
    37    23    54    1
    38    24    53    1
    39    25    45    1
    40    26   146    2
    41    26    44    1
    42    27    67    1
    43    27    15    1
    44    28    95    1
    45    28    27    1
    46    29    70    1
    47    29    28    1
    48    30    71    1
    49    30    28    1
    50    31    74    1
    51    31    16    1
    52    32    96    1
    53    32    31    1
    54    33    77    1
    55    33    32    1
    56    34    79    1
    57    34    32    1
    58    35    81    1
    59    35    17    1
    60    36    38    1
    61    36    35    1
    62    37    84    1
    63    37    36    1
    64    38    85    1
    65    38    86    1
    66    39    88    1
    67    39    18    1
    68    40    42    1
    69    40    39    1
    70    41    89    1
    71    41    40    1
    72    42    93    1
    73    42    92    1
    74    43   101    1
    75    43   107    1
    76    44    99    1
    77    44    43    1
    78    45   108    1
    79    45    46    1
    80    45    44    1
    81    46    47    1
    82    46   103    1
    83    47    48    1
    84    47   104    1
    85    48    43    1
    86    48   100    1
    87    49    54    1
    88    49    52    1
    89    49   110    1
    90    50   111    1
    91    51    50    1
    92    51   114    1
    93    51    52    1
    94    52   115    1
    95    53    50    1
    96    53   117    1
    97    53    54    1
    98    54   118    1
    99    55   122    1
   100    55    58    1
   101    56   119    1
   102    56    55    1
   103    57    58    1
   104    57   124    1
   105    58   121    1
   106    58   125    1
   107    59   127    1
   108    59    56    1
   109    59    60    1
   110    60   128    1
   111    60    57    1
   112    61   132    1
   113    61    64    1
   114    61   136    1
   115    62    61    1
   116    63   133    1
   117    63   134    1
   118    63    64    1
   119    64   135    1
   120    65   137    1
   121    65    63    1
   122    66   138    1
   123    66    65    1
   124    66    62    1
   125    68    29    1
   126    69    29    1
   127    72    30    1
   128    73    30    1
   129    75    33    1
   130    76    33    1
   131    78    34    1
   132    80    34    1
   133    82    37    1
   134    83    37    1
   135    87    38    1
   136    90    41    1
   137    91    41    1
   138    94    42    1
   139    97    36    1
   140    98    40    1
   141   102    46    1
   142   105    47    1
   143   106    48    1
   144   109    52    1
   145   112    50    1
   146   113    51    1
   147   116    49    1
   148   120    56    1
   149   123    57    1
   150   126    55    1
   151   129    62    1
   152   130    62    1
   153   131    64    1
   154   140    24    2
   155   141    21    2
   156   144    19    2
   157   145    25    2
