@<TRIPOS>MOLECULE
RhRh_S-BPTTL4_5_sp
 158 173 0 0 0
SMALL
GASTEIGER

@<TRIPOS>ATOM
      1 Rh         -0.7132   -0.4839    0.0991 Rh      1  UNL1        0.0000
      2 Rh         -0.3828   -1.2007   -2.1573 Rh      1  UNL1        0.0000
      3 C          -1.8575   -3.0725   -0.5312 C.3     1  UNL1        0.0000
      4 C           0.7508    1.3709   -1.5421 C.3     1  UNL1        0.0000
      5 C          -2.8366    0.2671   -1.6994 C.3     1  UNL1        0.0000
      6 C           1.7292   -1.9531   -0.3352 C.3     1  UNL1        0.0000
      7 O          -2.4996    0.3462   -0.4770 O.3     1  UNL1        0.0000
      8 O          -2.1902   -0.3241   -2.6146 O.3     1  UNL1        0.0000
      9 O          -1.7038   -2.2567    0.4340 O.3     1  UNL1        0.0000
     10 O          -1.3477   -2.9667   -1.6839 O.3     1  UNL1        0.0000
     11 O           1.0577   -1.3738    0.5689 O.3     1  UNL1        0.0000
     12 O           1.4110   -2.0358   -1.5627 O.3     1  UNL1        0.0000
     13 O           0.3205    1.2259   -0.3556 O.3     1  UNL1        0.0000
     14 O           0.5181    0.5984   -2.5196 O.3     1  UNL1        0.0000
     15 N          -4.3446    2.0955   -1.2044 N.am    1  UNL1        0.0000
     16 N          -3.9309   -3.7579    0.4670 N.am    1  UNL1        0.0000
     17 N           4.1075   -1.9346    0.5158 N.am    1  UNL1        0.0000
     18 N           3.0075    2.2391   -1.2854 N.am    1  UNL1        0.0000
     19 C          -5.4445    2.2782   -0.3570 C.2     1  UNL1        0.0000
     20 C          -5.1343    3.4703    0.4710 C.ar    1  UNL1        0.0000
     21 C          -5.8643    4.0767    1.4549 C.ar    1  UNL1        0.0000
     22 C          -5.3023    5.2077    2.1154 C.ar    1  UNL1        0.0000
     23 C          -3.9945    5.6795    1.7394 C.ar    1  UNL1        0.0000
     24 C          -3.2697    5.0130    0.7087 C.ar    1  UNL1        0.0000
     25 C          -3.8488    3.9339    0.1018 C.ar    1  UNL1        0.0000
     26 C          -3.3291    3.0444   -0.9672 C.2     1  UNL1        0.0000
     27 C          -4.2403   -4.0559    1.8140 C.2     1  UNL1        0.0000
     28 C          -5.2914   -3.0820    2.2099 C.ar    1  UNL1        0.0000
     29 C          -5.9412   -2.9105    3.4014 C.ar    1  UNL1        0.0000
     30 C          -6.8510   -1.8186    3.5265 C.ar    1  UNL1        0.0000
     31 C          -7.0607   -0.9310    2.4128 C.ar    1  UNL1        0.0000
     32 C          -6.3795   -1.1587    1.1833 C.ar    1  UNL1        0.0000
     33 C          -5.5168   -2.2161    1.1119 C.ar    1  UNL1        0.0000
     34 C          -4.6278   -2.6304    0.0048 C.2     1  UNL1        0.0000
     35 C           5.4155   -2.4003    0.2377 C.2     1  UNL1        0.0000
     36 C           6.3311   -1.5962    1.0864 C.ar    1  UNL1        0.0000
     37 C           7.6755   -1.7192    1.3053 C.ar    1  UNL1        0.0000
     38 C           8.2966   -0.8204    2.2206 C.ar    1  UNL1        0.0000
     39 C           7.5149    0.2067    2.8561 C.ar    1  UNL1        0.0000
     40 C           6.1195    0.3038    2.5850 C.ar    1  UNL1        0.0000
     41 C           5.5611   -0.6039    1.7298 C.ar    1  UNL1        0.0000
     42 C           4.1365   -0.7768    1.3357 C.2     1  UNL1        0.0000
     43 C           3.7157    3.0752   -0.3946 C.2     1  UNL1        0.0000
     44 C           5.0877    2.5034   -0.3100 C.ar    1  UNL1        0.0000
     45 C           6.2073    2.9680    0.3238 C.ar    1  UNL1        0.0000
     46 C           7.4360    2.2712    0.1287 C.ar    1  UNL1        0.0000
     47 C           7.4738    1.1077   -0.7170 C.ar    1  UNL1        0.0000
     48 C           6.2750    0.6356   -1.3216 C.ar    1  UNL1        0.0000
     49 C           5.1227    1.3396   -1.1106 C.ar    1  UNL1        0.0000
     50 C           3.7682    1.1179   -1.6773 C.2     1  UNL1        0.0000
     51 C          -4.1871    0.9089   -2.0442 C.3     1  UNL1        0.0000
     52 C          -4.5229    1.1370   -3.5485 C.3     1  UNL1        0.0000
     53 C          -5.8587    1.9009   -3.6221 C.3     1  UNL1        0.0000
     54 C          -3.4412    1.9403   -4.2881 C.3     1  UNL1        0.0000
     55 C          -4.7165   -0.2382   -4.2177 C.3     1  UNL1        0.0000
     56 C          -2.7295   -4.2881   -0.1760 C.3     1  UNL1        0.0000
     57 C          -2.9936   -5.3573   -1.2698 C.3     1  UNL1        0.0000
     58 C          -3.6874   -4.7902   -2.5184 C.3     1  UNL1        0.0000
     59 C          -3.8884   -6.4431   -0.6426 C.3     1  UNL1        0.0000
     60 C          -1.6440   -5.9933   -1.6549 C.3     1  UNL1        0.0000
     61 C           2.9623   -2.7516    0.0951 C.3     1  UNL1        0.0000
     62 C           2.5750   -3.8438    1.1611 C.3     1  UNL1        0.0000
     63 C           2.3547   -3.2410    2.5577 C.3     1  UNL1        0.0000
     64 C           1.2856   -4.5450    0.6876 C.3     1  UNL1        0.0000
     65 C           3.6999   -4.8909    1.2465 C.3     1  UNL1        0.0000
     66 C           1.6606    2.5868   -1.7473 C.3     1  UNL1        0.0000
     67 C           1.6423    3.2618   -3.1519 C.3     1  UNL1        0.0000
     68 C           2.2560    2.3952   -4.2638 C.3     1  UNL1        0.0000
     69 C           0.1810    3.5952   -3.4974 C.3     1  UNL1        0.0000
     70 C           2.4434    4.5736   -3.0509 C.3     1  UNL1        0.0000
     71 C          -7.5461   -1.5657    4.7355 C.ar    1  UNL1        0.0000
     72 C          -7.9367    0.1736    2.5639 C.ar    1  UNL1        0.0000
     73 C          -8.5924    0.3890    3.7561 C.ar    1  UNL1        0.0000
     74 C          -8.3988   -0.4892    4.8476 C.ar    1  UNL1        0.0000
     75 C           8.1567    1.0955    3.7543 C.ar    1  UNL1        0.0000
     76 C           9.6781   -0.9082    2.5211 C.ar    1  UNL1        0.0000
     77 C           9.5016    0.9788    4.0265 C.ar    1  UNL1        0.0000
     78 C          10.2686   -0.0326    3.4052 C.ar    1  UNL1        0.0000
     79 C           8.7131    0.4556   -0.9311 C.ar    1  UNL1        0.0000
     80 C           8.6390    2.7069    0.7379 C.ar    1  UNL1        0.0000
     81 C           9.8651    0.9170   -0.3353 C.ar    1  UNL1        0.0000
     82 C           9.8258    2.0464    0.5124 C.ar    1  UNL1        0.0000
     83 C          -3.4543    6.8028    2.4137 C.ar    1  UNL1        0.0000
     84 C          -6.0014    5.8844    3.1458 C.ar    1  UNL1        0.0000
     85 C          -5.4463    6.9742    3.7793 C.ar    1  UNL1        0.0000
     86 C          -4.1626    7.4369    3.4104 C.ar    1  UNL1        0.0000
     87 H          -6.8445    3.7063    1.7383 H       1  UNL1        0.0000
     88 H          -2.2795    5.3534    0.4227 H       1  UNL1        0.0000
     89 H          -5.7593   -3.5731    4.2418 H       1  UNL1        0.0000
     90 H          -6.5281   -0.4844    0.3483 H       1  UNL1        0.0000
     91 H           8.2587   -2.4873    0.8075 H       1  UNL1        0.0000
     92 H           5.5148    1.0695    3.0598 H       1  UNL1        0.0000
     93 H           6.1743    3.8605    0.9409 H       1  UNL1        0.0000
     94 H           6.2824   -0.2532   -1.9449 H       1  UNL1        0.0000
     95 H          -4.9206    0.1931   -1.6587 H       1  UNL1        0.0000
     96 H          -6.1792    1.9767   -4.6654 H       1  UNL1        0.0000
     97 H          -5.7633    2.9176   -3.2294 H       1  UNL1        0.0000
     98 H          -6.6447    1.3919   -3.0568 H       1  UNL1        0.0000
     99 H          -2.4834    1.4184   -4.2762 H       1  UNL1        0.0000
    100 H          -3.2945    2.9256   -3.8405 H       1  UNL1        0.0000
    101 H          -3.7440    2.0822   -5.3310 H       1  UNL1        0.0000
    102 H          -3.7927   -0.8158   -4.2196 H       1  UNL1        0.0000
    103 H          -5.0431   -0.0975   -5.2532 H       1  UNL1        0.0000
    104 H          -5.4815   -0.8238   -3.6973 H       1  UNL1        0.0000
    105 H          -2.1980   -4.7930    0.6394 H       1  UNL1        0.0000
    106 H          -4.6629   -4.3646   -2.2743 H       1  UNL1        0.0000
    107 H          -3.8412   -5.5974   -3.2426 H       1  UNL1        0.0000
    108 H          -3.0888   -4.0090   -2.9873 H       1  UNL1        0.0000
    109 H          -4.8785   -6.0487   -0.3972 H       1  UNL1        0.0000
    110 H          -3.4503   -6.8458    0.2759 H       1  UNL1        0.0000
    111 H          -4.0214   -7.2665   -1.3508 H       1  UNL1        0.0000
    112 H          -1.1366   -6.4056   -0.7750 H       1  UNL1        0.0000
    113 H          -0.9808   -5.2683   -2.1288 H       1  UNL1        0.0000
    114 H          -1.8112   -6.8165   -2.3565 H       1  UNL1        0.0000
    115 H           3.3080   -3.2661   -0.8028 H       1  UNL1        0.0000
    116 H           1.5897   -2.4653    2.5466 H       1  UNL1        0.0000
    117 H           3.2794   -2.8082    2.9518 H       1  UNL1        0.0000
    118 H           2.0457   -4.0331    3.2475 H       1  UNL1        0.0000
    119 H           0.4227   -3.8813    0.7676 H       1  UNL1        0.0000
    120 H           1.0909   -5.4184    1.3169 H       1  UNL1        0.0000
    121 H           1.3686   -4.8884   -0.3487 H       1  UNL1        0.0000
    122 H           4.6249   -4.4658    1.6432 H       1  UNL1        0.0000
    123 H           3.9251   -5.3280    0.2701 H       1  UNL1        0.0000
    124 H           3.3932   -5.6942    1.9239 H       1  UNL1        0.0000
    125 H           1.3132    3.3266   -1.0221 H       1  UNL1        0.0000
    126 H           3.3202    2.2134   -4.0931 H       1  UNL1        0.0000
    127 H           2.1629    2.9248   -5.2180 H       1  UNL1        0.0000
    128 H           1.7562    1.4309   -4.3436 H       1  UNL1        0.0000
    129 H          -0.2920    4.1951   -2.7153 H       1  UNL1        0.0000
    130 H          -0.4182    2.6926   -3.6248 H       1  UNL1        0.0000
    131 H           0.1462    4.1631   -4.4326 H       1  UNL1        0.0000
    132 H           3.5009    4.3853   -2.8428 H       1  UNL1        0.0000
    133 H           2.0567    5.2253   -2.2620 H       1  UNL1        0.0000
    134 H           2.3860    5.1121   -4.0019 H       1  UNL1        0.0000
    135 H          -9.2620    1.2368    3.8634 H       1  UNL1        0.0000
    136 H          -8.9234   -0.3089    5.7807 H       1  UNL1        0.0000
    137 H           9.9774    1.6647    4.7202 H       1  UNL1        0.0000
    138 H          11.3279   -0.1162    3.6267 H       1  UNL1        0.0000
    139 H          10.8073    0.4059   -0.5044 H       1  UNL1        0.0000
    140 H          10.7361    2.3876    0.9939 H       1  UNL1        0.0000
    141 H          -8.0616    0.8459    1.7206 H       1  UNL1        0.0000
    142 H           7.5629    1.8707    4.2297 H       1  UNL1        0.0000
    143 H          -2.4670    7.1543    2.1297 H       1  UNL1        0.0000
    144 H           8.7336   -0.4204   -1.5721 H       1  UNL1        0.0000
    145 O           3.2057   -0.0631    1.6370 O.2     1  UNL1        0.0000
    146 O           5.6928   -3.2907   -0.5411 O.2     1  UNL1        0.0000
    147 O           3.2683    4.0708    0.1368 O.2     1  UNL1        0.0000
    148 O           3.3837    0.1771   -2.3392 O.2     1  UNL1        0.0000
    149 O          -6.4425    1.5764   -0.3336 O.2     1  UNL1        0.0000
    150 O          -2.2599    3.0852   -1.5410 O.2     1  UNL1        0.0000
    151 O          -3.7044   -4.9264    2.4693 O.2     1  UNL1        0.0000
    152 O          -4.4726   -2.1145   -1.0886 O.2     1  UNL1        0.0000
    153 H          -6.9869    5.5259    3.4281 H       1  UNL1        0.0000
    154 H          -5.9942    7.4820    4.5667 H       1  UNL1        0.0000
    155 H          -3.7352    8.2957    3.9179 H       1  UNL1        0.0000
    156 H           8.6079    3.5745    1.3897 H       1  UNL1        0.0000
    157 H          10.2662   -1.6827    2.0378 H       1  UNL1        0.0000
    158 H          -7.3910   -2.2353    5.5765 H       1  UNL1        0.0000
@<TRIPOS>BOND
     1     1     9    1
     2     1    11    1
     3     2    10    1
     4     2    12    1
     5     2     1    1
     6     3    56    1
     7     3     9    1
     8     4    66    1
     9     4    13    1
    10     5    51    1
    11     5     7    1
    12     6    61    1
    13     6    11    1
    14     7     1    1
    15     8     2    1
    16     8     5    1
    17    10     3    1
    18    12     6    1
    19    13     1    1
    20    14     2    1
    21    14     4    1
    22    15    26   am
    23    15    19   am
    24    16    27   am
    25    17    42   am
    26    18    43   am
    27    19   149    2
    28    19    20    1
    29    20    21   ar
    30    21    87    1
    31    21    22   ar
    32    22    84   ar
    33    23    22   ar
    34    23    83   ar
    35    24    23   ar
    36    25    20   ar
    37    25    24   ar
    38    26    25    1
    39    27    28    1
    40    27   151    2
    41    28    29   ar
    42    29    30   ar
    43    29    89    1
    44    30    71   ar
    45    31    72   ar
    46    31    30   ar
    47    32    31   ar
    48    33    32   ar
    49    33    28   ar
    50    34    16   am
    51    34    33    1
    52    35    17   am
    53    35    36    1
    54    36    37   ar
    55    36    41   ar
    56    37    38   ar
    57    38    76   ar
    58    38    39   ar
    59    39    75   ar
    60    40    39   ar
    61    40    92    1
    62    41    40   ar
    63    42   145    2
    64    42    41    1
    65    43    44    1
    66    43   147    2
    67    44    45   ar
    68    45    93    1
    69    46    45   ar
    70    46    80   ar
    71    47    46   ar
    72    48    49   ar
    73    48    47   ar
    74    49    44   ar
    75    50    18   am
    76    50    49    1
    77    51    95    1
    78    51    15    1
    79    52    51    1
    80    53    52    1
    81    53    97    1
    82    53    98    1
    83    54    99    1
    84    54   100    1
    85    54    52    1
    86    55   104    1
    87    55    52    1
    88    56    16    1
    89    56   105    1
    90    57    59    1
    91    57    56    1
    92    58   106    1
    93    58    57    1
    94    59   109    1
    95    59   110    1
    96    60    57    1
    97    60   112    1
    98    61   115    1
    99    61    17    1
   100    61    62    1
   101    62    65    1
   102    62    63    1
   103    63   117    1
   104    63   118    1
   105    64   119    1
   106    64    62    1
   107    64   120    1
   108    65   122    1
   109    65   124    1
   110    66    18    1
   111    66   125    1
   112    67    70    1
   113    67    66    1
   114    68   126    1
   115    68    67    1
   116    69    67    1
   117    69   129    1
   118    70   132    1
   119    70   133    1
   120    71    74   ar
   121    71   158    1
   122    72    73   ar
   123    73   135    1
   124    73    74   ar
   125    74   136    1
   126    75    77   ar
   127    75   142    1
   128    76    78   ar
   129    77   137    1
   130    78   138    1
   131    78    77   ar
   132    79    47   ar
   133    79    81   ar
   134    80   156    1
   135    81    82   ar
   136    82    80   ar
   137    82   140    1
   138    83    86   ar
   139    84   153    1
   140    84    85   ar
   141    85   154    1
   142    86    85   ar
   143    86   155    1
   144    88    24    1
   145    90    32    1
   146    91    37    1
   147    94    48    1
   148    96    53    1
   149   101    54    1
   150   102    55    1
   151   103    55    1
   152   107    58    1
   153   108    58    1
   154   111    59    1
   155   113    60    1
   156   114    60    1
   157   116    63    1
   158   121    64    1
   159   123    65    1
   160   127    68    1
   161   128    68    1
   162   130    69    1
   163   131    69    1
   164   134    70    1
   165   139    81    1
   166   141    72    1
   167   143    83    1
   168   144    79    1
   169   146    35    2
   170   148    50    2
   171   150    26    2
   172   152    34    2
   173   157    76    1
