@<TRIPOS>MOLECULE
RhRh_EtEtiPr-O2C4_33_sp
 114 117 0 0 0
SMALL
GASTEIGER

@<TRIPOS>ATOM
      1 Rh         -0.1038   -0.1149    1.2753 Rh      1  UNL1        0.0000
      2 Rh         -0.0731   -0.0982   -1.1045 Rh      1  UNL1        0.0000
      3 C          -0.7232   -2.6823    0.0556 C.3     1  UNL1        0.0000
      4 C           2.5006   -0.6924    0.1080 C.3     1  UNL1        0.0000
      5 C           0.6407    2.4459    0.1084 C.3     1  UNL1        0.0000
      6 C          -2.6287    0.6545    0.0717 C.3     1  UNL1        0.0000
      7 O           1.9195   -0.5371    1.2316 O.3     1  UNL1        0.0000
      8 O           1.8967   -0.6999   -1.0159 O.3     1  UNL1        0.0000
      9 O          -0.5421   -2.1275    1.1907 O.3     1  UNL1        0.0000
     10 O          -0.6943   -2.0649   -1.0601 O.3     1  UNL1        0.0000
     11 O           0.3420    1.9016    1.2212 O.3     1  UNL1        0.0000
     12 O           0.6023    1.8459   -1.0171 O.3     1  UNL1        0.0000
     13 O          -2.0974    0.3649    1.1936 O.3     1  UNL1        0.0000
     14 O          -2.0294    0.5704   -1.0517 O.3     1  UNL1        0.0000
     15 C           4.0165   -0.9419    0.1217 C.3     1  UNL1        0.0000
     16 C           4.6439   -0.2955    1.3916 C.3     1  UNL1        0.0000
     17 C           4.4220    1.1946    1.6681 C.3     1  UNL1        0.0000
     18 C           4.7101   -0.4675   -1.2048 C.3     1  UNL1        0.0000
     19 C           4.4918   -1.3954   -2.4139 C.3     1  UNL1        0.0000
     20 C           4.3647    0.9698   -1.6308 C.3     1  UNL1        0.0000
     21 C           4.1527   -2.4895    0.2999 C.3     1  UNL1        0.0000
     22 C           5.5832   -3.0269    0.3997 C.3     1  UNL1        0.0000
     23 C          -0.8964   -4.2036    0.0254 C.3     1  UNL1        0.0000
     24 C          -1.8270   -4.6812   -1.1281 C.3     1  UNL1        0.0000
     25 C          -3.0710   -3.8535   -1.4624 C.3     1  UNL1        0.0000
     26 C           0.5416   -4.8210   -0.2387 C.3     1  UNL1        0.0000
     27 C           1.2593   -4.2601   -1.4767 C.3     1  UNL1        0.0000
     28 C           1.4786   -4.7318    0.9754 C.3     1  UNL1        0.0000
     29 C          -1.3916   -4.7305    1.3969 C.3     1  UNL1        0.0000
     30 C          -2.8345   -4.4237    1.7983 C.3     1  UNL1        0.0000
     31 C           1.0881    3.9155    0.1007 C.3     1  UNL1        0.0000
     32 C           1.0274    4.5103    1.5339 C.3     1  UNL1        0.0000
     33 C           2.0717    4.0195    2.5406 C.3     1  UNL1        0.0000
     34 C           0.1203    4.7455   -0.8236 C.3     1  UNL1        0.0000
     35 C           0.2920    4.5288   -2.3339 C.3     1  UNL1        0.0000
     36 C          -1.3502    4.5293   -0.4474 C.3     1  UNL1        0.0000
     37 C           2.5408    3.9333   -0.4503 C.3     1  UNL1        0.0000
     38 C           3.1778    5.3214   -0.5443 C.3     1  UNL1        0.0000
     39 C          -4.0999    1.0998    0.0768 C.3     1  UNL1        0.0000
     40 C          -4.3030    2.1626   -1.0349 C.3     1  UNL1        0.0000
     41 C          -5.7329    2.6907   -1.1726 C.3     1  UNL1        0.0000
     42 C          -4.4586    1.6762    1.4703 C.3     1  UNL1        0.0000
     43 C          -3.7388    2.9705    1.8570 C.3     1  UNL1        0.0000
     44 C          -4.9908   -0.1712   -0.1979 C.3     1  UNL1        0.0000
     45 C          -4.9030   -0.6824   -1.6426 C.3     1  UNL1        0.0000
     46 C          -4.7101   -1.3212    0.7779 C.3     1  UNL1        0.0000
     47 H           4.2564   -0.8521    2.2501 H       1  UNL1        0.0000
     48 H           5.7201   -0.4914    1.3564 H       1  UNL1        0.0000
     49 H           3.3742    1.4716    1.5463 H       1  UNL1        0.0000
     50 H           5.0313    1.8393    1.0316 H       1  UNL1        0.0000
     51 H           4.6959    1.4183    2.7042 H       1  UNL1        0.0000
     52 H           5.7836   -0.4867   -0.9735 H       1  UNL1        0.0000
     53 H           4.8489   -2.4129   -2.2412 H       1  UNL1        0.0000
     54 H           5.0419   -1.0013   -3.2746 H       1  UNL1        0.0000
     55 H           3.4346   -1.4436   -2.6806 H       1  UNL1        0.0000
     56 H           4.9367    1.2311   -2.5271 H       1  UNL1        0.0000
     57 H           4.6040    1.7078   -0.8675 H       1  UNL1        0.0000
     58 H           3.3041    1.0643   -1.8722 H       1  UNL1        0.0000
     59 H           3.6112   -2.7626    1.2101 H       1  UNL1        0.0000
     60 H           5.5604   -4.1196    0.4621 H       1  UNL1        0.0000
     61 H           6.0984   -2.6607    1.2911 H       1  UNL1        0.0000
     62 H           6.1887   -2.7600   -0.4706 H       1  UNL1        0.0000
     63 H          -1.2411   -4.7689   -2.0453 H       1  UNL1        0.0000
     64 H          -2.1267   -5.7038   -0.8666 H       1  UNL1        0.0000
     65 H          -3.6569   -4.3663   -2.2323 H       1  UNL1        0.0000
     66 H          -2.7899   -2.8753   -1.8517 H       1  UNL1        0.0000
     67 H          -3.7237   -3.6972   -0.6037 H       1  UNL1        0.0000
     68 H           0.3373   -5.8842   -0.4279 H       1  UNL1        0.0000
     69 H           2.1585   -4.8538   -1.6709 H       1  UNL1        0.0000
     70 H           1.5650   -3.2224   -1.3319 H       1  UNL1        0.0000
     71 H           0.6434   -4.2897   -2.3775 H       1  UNL1        0.0000
     72 H           2.4786   -5.0784    0.6985 H       1  UNL1        0.0000
     73 H           1.1396   -5.3460    1.8113 H       1  UNL1        0.0000
     74 H           1.5668   -3.7010    1.3294 H       1  UNL1        0.0000
     75 H          -0.7392   -4.3344    2.1750 H       1  UNL1        0.0000
     76 H          -3.0212   -4.8027    2.8083 H       1  UNL1        0.0000
     77 H          -3.5651   -4.8937    1.1353 H       1  UNL1        0.0000
     78 H          -3.0226   -3.3482    1.8140 H       1  UNL1        0.0000
     79 H           1.1147    5.5984    1.4363 H       1  UNL1        0.0000
     80 H           0.0359    4.3186    1.9500 H       1  UNL1        0.0000
     81 H           1.9052    4.5036    3.5084 H       1  UNL1        0.0000
     82 H           3.0936    4.2570    2.2311 H       1  UNL1        0.0000
     83 H           2.0012    2.9414    2.6905 H       1  UNL1        0.0000
     84 H           0.3667    5.7943   -0.6155 H       1  UNL1        0.0000
     85 H          -0.3941    5.1913   -2.8721 H       1  UNL1        0.0000
     86 H           0.0633    3.4988   -2.6129 H       1  UNL1        0.0000
     87 H           1.3033    4.7570   -2.6782 H       1  UNL1        0.0000
     88 H          -1.9968    5.1762   -1.0487 H       1  UNL1        0.0000
     89 H          -1.5547    4.7410    0.6036 H       1  UNL1        0.0000
     90 H          -1.6434    3.4959   -0.6510 H       1  UNL1        0.0000
     91 H           2.5476    3.4538   -1.4306 H       1  UNL1        0.0000
     92 H           2.6230    5.9844   -1.2141 H       1  UNL1        0.0000
     93 H           4.1968    5.2379   -0.9346 H       1  UNL1        0.0000
     94 H           3.2387    5.8114    0.4316 H       1  UNL1        0.0000
     95 H          -3.6389    3.0054   -0.8337 H       1  UNL1        0.0000
     96 H          -3.9658    1.7480   -1.9859 H       1  UNL1        0.0000
     97 H          -6.0814    3.1755   -0.2558 H       1  UNL1        0.0000
     98 H          -6.4460    1.8994   -1.4211 H       1  UNL1        0.0000
     99 H          -5.7789    3.4351   -1.9735 H       1  UNL1        0.0000
    100 H          -5.5420    1.8377    1.4946 H       1  UNL1        0.0000
    101 H          -4.0052    3.8062    1.2037 H       1  UNL1        0.0000
    102 H          -2.6538    2.8418    1.8216 H       1  UNL1        0.0000
    103 H          -4.0050    3.2567    2.8794 H       1  UNL1        0.0000
    104 H          -6.0209    0.1634   -0.0220 H       1  UNL1        0.0000
    105 H          -5.4858   -1.6026   -1.7476 H       1  UNL1        0.0000
    106 H          -3.8704   -0.9043   -1.9207 H       1  UNL1        0.0000
    107 H          -5.2956    0.0397   -2.3622 H       1  UNL1        0.0000
    108 H          -4.8333   -1.0286    1.8224 H       1  UNL1        0.0000
    109 H          -3.6917   -1.6957    0.6584 H       1  UNL1        0.0000
    110 H          -5.3945   -2.1522    0.5822 H       1  UNL1        0.0000
    111 H           3.6367   -2.9887   -0.5219 H       1  UNL1        0.0000
    112 H           3.1606    3.3030    0.1922 H       1  UNL1        0.0000
    113 H          -4.2387    0.9240    2.2284 H       1  UNL1        0.0000
    114 H          -1.2494   -5.8188    1.3859 H       1  UNL1        0.0000
@<TRIPOS>BOND
     1     2    10    1
     2     2    14    1
     3     2    12    1
     4     2     8    1
     5     2     1    1
     6     3     9    1
     7     4    15    1
     8     4     7    1
     9     5    11    1
    10     6    39    1
    11     6    13    1
    12     7     1    1
    13     8     4    1
    14     9     1    1
    15    10     3    1
    16    11     1    1
    17    12     5    1
    18    13     1    1
    19    14     6    1
    20    15    21    1
    21    15    16    1
    22    16    17    1
    23    16    47    1
    24    17    51    1
    25    18    52    1
    26    18    15    1
    27    19    53    1
    28    19    18    1
    29    20    18    1
    30    20    57    1
    31    21    22    1
    32    21    59    1
    33    22    60    1
    34    22    61    1
    35    23     3    1
    36    23    29    1
    37    24    64    1
    38    24    23    1
    39    25    24    1
    40    25    67    1
    41    26    23    1
    42    26    28    1
    43    27    70    1
    44    27    26    1
    45    28    74    1
    46    28    73    1
    47    29    30    1
    48    29    75    1
    49    30    78    1
    50    30    76    1
    51    31     5    1
    52    31    32    1
    53    32    80    1
    54    32    33    1
    55    33    83    1
    56    33    81    1
    57    34    84    1
    58    34    36    1
    59    34    31    1
    60    35    34    1
    61    36    89    1
    62    37    31    1
    63    37   112    1
    64    38    37    1
    65    38    94    1
    66    39    42    1
    67    40    95    1
    68    40    39    1
    69    41    40    1
    70    41    97    1
    71    42   100    1
    72    42    43    1
    73    42   113    1
    74    43   103    1
    75    44   104    1
    76    44    39    1
    77    44    46    1
    78    45    44    1
    79    46   108    1
    80    48    16    1
    81    49    17    1
    82    50    17    1
    83    54    19    1
    84    55    19    1
    85    56    20    1
    86    58    20    1
    87    62    22    1
    88    63    24    1
    89    65    25    1
    90    66    25    1
    91    68    26    1
    92    69    27    1
    93    71    27    1
    94    72    28    1
    95    77    30    1
    96    79    32    1
    97    82    33    1
    98    85    35    1
    99    86    35    1
   100    87    35    1
   101    88    36    1
   102    90    36    1
   103    91    37    1
   104    92    38    1
   105    93    38    1
   106    96    40    1
   107    98    41    1
   108    99    41    1
   109   101    43    1
   110   102    43    1
   111   105    45    1
   112   106    45    1
   113   107    45    1
   114   109    46    1
   115   110    46    1
   116   111    21    1
   117   114    29    1
