@<TRIPOS>MOLECULE
RhRh_ACH4_18_sp
 138 153 0 0 0
SMALL
GASTEIGER

@<TRIPOS>ATOM
      1 Rh         -0.4587   -0.3856    0.6788 Rh      1  UNL1        0.0000
      2 Rh         -0.3985    0.3559   -1.5930 Rh      1  UNL1        0.0000
      3 C          -1.7310    2.1551    0.2281 C.3     1  UNL1        0.0000
      4 C           1.8932    1.1203   -0.0304 C.3     1  UNL1        0.0000
      5 C           0.7982   -2.2387   -1.1388 C.3     1  UNL1        0.0000
      6 C          -2.7536   -1.1642   -0.8906 C.3     1  UNL1        0.0000
      7 O          -2.2025   -1.3816    0.2341 O.3     1  UNL1        0.0000
      8 O          -2.2567   -0.5052   -1.8533 O.3     1  UNL1        0.0000
      9 O           0.6161   -2.0397    0.1027 O.3     1  UNL1        0.0000
     10 O           0.4816   -1.4394   -2.0716 O.3     1  UNL1        0.0000
     11 O           1.4375    1.1855   -1.2126 O.3     1  UNL1        0.0000
     12 O           1.2826    0.6606    0.9835 O.3     1  UNL1        0.0000
     13 O          -1.3095    2.0892   -0.9716 O.3     1  UNL1        0.0000
     14 O          -1.5812    1.2749    1.1258 O.3     1  UNL1        0.0000
     15 N          -4.6657   -2.1767    0.2022 N.am    1  UNL1        0.0000
     16 N           2.9263   -3.3935   -1.4377 N.am    1  UNL1        0.0000
     17 N           3.8713    0.9291    1.3454 N.am    1  UNL1        0.0000
     18 N          -1.7993    4.5499   -0.0042 N.am    1  UNL1        0.0000
     19 C          -4.1318   -1.8027   -1.1276 C.3     1  UNL1        0.0000
     20 C          -3.9236   -3.0185   -2.0691 C.3     1  UNL1        0.0000
     21 C          -5.2388   -3.6911   -2.4756 C.3     1  UNL1        0.0000
     22 C          -6.2204   -2.6953   -3.1025 C.3     1  UNL1        0.0000
     23 C          -6.4217   -1.4779   -2.1936 C.3     1  UNL1        0.0000
     24 C          -5.0861   -0.8151   -1.8457 C.3     1  UNL1        0.0000
     25 C          -4.5125   -3.4321    0.8449 C.2     1  UNL1        0.0000
     26 C          -4.8773   -3.2180    2.2720 C.ar    1  UNL1        0.0000
     27 C          -4.9558   -4.1283    3.3148 C.ar    1  UNL1        0.0000
     28 C          -5.2999   -3.6274    4.5760 C.ar    1  UNL1        0.0000
     29 C          -5.5492   -2.2620    4.7704 C.ar    1  UNL1        0.0000
     30 C          -5.4631   -1.3532    3.7093 C.ar    1  UNL1        0.0000
     31 C          -5.1263   -1.8640    2.4649 C.ar    1  UNL1        0.0000
     32 C          -4.9262   -1.1711    1.1684 C.2     1  UNL1        0.0000
     33 C           1.4494   -3.5899   -1.5373 C.3     1  UNL1        0.0000
     34 C           1.0832   -3.9827   -2.9872 C.3     1  UNL1        0.0000
     35 C          -0.4130   -4.2733   -3.1618 C.3     1  UNL1        0.0000
     36 C          -0.9091   -5.3388   -2.1819 C.3     1  UNL1        0.0000
     37 C          -0.5599   -4.9400   -0.7468 C.3     1  UNL1        0.0000
     38 C           0.9442   -4.6868   -0.5729 C.3     1  UNL1        0.0000
     39 C           3.6310   -2.5156   -2.3089 C.2     1  UNL1        0.0000
     40 C           5.0330   -2.4684   -1.8211 C.ar    1  UNL1        0.0000
     41 C           6.1168   -1.7503   -2.3018 C.ar    1  UNL1        0.0000
     42 C           7.3146   -1.8424   -1.5828 C.ar    1  UNL1        0.0000
     43 C           7.4047   -2.6319   -0.4288 C.ar    1  UNL1        0.0000
     44 C           6.2998   -3.3503    0.0446 C.ar    1  UNL1        0.0000
     45 C           5.1198   -3.2456   -0.6745 C.ar    1  UNL1        0.0000
     46 C           3.7717   -3.8075   -0.3806 C.2     1  UNL1        0.0000
     47 C           3.3141    1.6790    0.1958 C.3     1  UNL1        0.0000
     48 C           4.1902    1.4412   -1.0586 C.3     1  UNL1        0.0000
     49 C           5.5515    2.1266   -0.9419 C.3     1  UNL1        0.0000
     50 C           5.3833    3.6399   -0.7752 C.3     1  UNL1        0.0000
     51 C           4.5199    3.9524    0.4507 C.3     1  UNL1        0.0000
     52 C           3.1809    3.2029    0.4379 C.3     1  UNL1        0.0000
     53 C           3.8319   -0.4800    1.2922 C.2     1  UNL1        0.0000
     54 C           4.2257   -0.9838    2.6259 C.ar    1  UNL1        0.0000
     55 C           4.3727   -2.2844    3.0880 C.ar    1  UNL1        0.0000
     56 C           4.7411   -2.4379    4.4307 C.ar    1  UNL1        0.0000
     57 C           4.9410   -1.3279    5.2621 C.ar    1  UNL1        0.0000
     58 C           4.7732   -0.0224    4.7827 C.ar    1  UNL1        0.0000
     59 C           4.4135    0.1215    3.4522 C.ar    1  UNL1        0.0000
     60 C           4.1281    1.3602    2.6682 C.2     1  UNL1        0.0000
     61 C          -2.5583    3.4073    0.5673 C.3     1  UNL1        0.0000
     62 C          -3.9492    3.1855   -0.0819 C.3     1  UNL1        0.0000
     63 C          -4.9969    4.2336    0.3135 C.3     1  UNL1        0.0000
     64 C          -5.0979    4.4079    1.8315 C.3     1  UNL1        0.0000
     65 C          -3.7185    4.7006    2.4296 C.3     1  UNL1        0.0000
     66 C          -2.7300    3.5829    2.0899 C.3     1  UNL1        0.0000
     67 C          -0.4474    4.7158    0.3769 C.2     1  UNL1        0.0000
     68 C           0.1247    5.7648   -0.5021 C.ar    1  UNL1        0.0000
     69 C           1.3868    6.3399   -0.5135 C.ar    1  UNL1        0.0000
     70 C           1.6464    7.2915   -1.5068 C.ar    1  UNL1        0.0000
     71 C           0.6678    7.6415   -2.4463 C.ar    1  UNL1        0.0000
     72 C          -0.6028    7.0531   -2.4225 C.ar    1  UNL1        0.0000
     73 C          -0.8482    6.1134   -1.4336 C.ar    1  UNL1        0.0000
     74 C          -2.0770    5.3093   -1.1655 C.2     1  UNL1        0.0000
     75 H          -3.4300   -2.6085   -2.9564 H       1  UNL1        0.0000
     76 H          -3.2492   -3.7407   -1.6163 H       1  UNL1        0.0000
     77 H          -5.0132   -4.5014   -3.1780 H       1  UNL1        0.0000
     78 H          -5.6896   -4.1622   -1.5968 H       1  UNL1        0.0000
     79 H          -7.1788   -3.1852   -3.3079 H       1  UNL1        0.0000
     80 H          -5.8253   -2.3554   -4.0697 H       1  UNL1        0.0000
     81 H          -7.0719   -0.7408   -2.6771 H       1  UNL1        0.0000
     82 H          -6.9293   -1.7852   -1.2701 H       1  UNL1        0.0000
     83 H          -5.2336    0.0737   -1.2362 H       1  UNL1        0.0000
     84 H          -4.5742   -0.5036   -2.7605 H       1  UNL1        0.0000
     85 H          -5.3709   -4.3052    5.4207 H       1  UNL1        0.0000
     86 H          -5.8091   -1.9056    5.7620 H       1  UNL1        0.0000
     87 H          -5.6456   -0.2929    3.8451 H       1  UNL1        0.0000
     88 H           1.3961   -3.1969   -3.6699 H       1  UNL1        0.0000
     89 H           1.6648   -4.8838   -3.2186 H       1  UNL1        0.0000
     90 H          -0.9756   -3.3444   -3.0145 H       1  UNL1        0.0000
     91 H          -0.5922   -4.5838   -4.1972 H       1  UNL1        0.0000
     92 H          -0.4319   -6.3005   -2.4164 H       1  UNL1        0.0000
     93 H          -1.9890   -5.4906   -2.2868 H       1  UNL1        0.0000
     94 H          -0.8678   -5.7207   -0.0436 H       1  UNL1        0.0000
     95 H          -1.1200   -4.0410   -0.4612 H       1  UNL1        0.0000
     96 H           1.5005   -5.6047   -0.7887 H       1  UNL1        0.0000
     97 H           1.1639   -4.4105    0.4538 H       1  UNL1        0.0000
     98 H           6.0258   -1.1361   -3.1910 H       1  UNL1        0.0000
     99 H           8.1872   -1.2921   -1.9201 H       1  UNL1        0.0000
    100 H           8.3464   -2.6811    0.1088 H       1  UNL1        0.0000
    101 H           3.6415    1.8513   -1.9104 H       1  UNL1        0.0000
    102 H           4.2940    0.3724   -1.2366 H       1  UNL1        0.0000
    103 H           6.1460    1.8977   -1.8335 H       1  UNL1        0.0000
    104 H           6.1018    1.7159   -0.0848 H       1  UNL1        0.0000
    105 H           6.3584    4.1322   -0.6844 H       1  UNL1        0.0000
    106 H           4.9060    4.0447   -1.6786 H       1  UNL1        0.0000
    107 H           4.3139    5.0286    0.5063 H       1  UNL1        0.0000
    108 H           5.0630    3.6978    1.3639 H       1  UNL1        0.0000
    109 H           2.6116    3.3961    1.3458 H       1  UNL1        0.0000
    110 H           2.5740    3.5639   -0.4001 H       1  UNL1        0.0000
    111 H           4.8668   -3.4358    4.8386 H       1  UNL1        0.0000
    112 H           5.2217   -1.4849    6.2989 H       1  UNL1        0.0000
    113 H           4.9089    0.8448    5.4196 H       1  UNL1        0.0000
    114 H          -4.2753    2.2025    0.2743 H       1  UNL1        0.0000
    115 H          -3.8467    3.1277   -1.1649 H       1  UNL1        0.0000
    116 H          -5.9633    3.9258   -0.1018 H       1  UNL1        0.0000
    117 H          -4.7465    5.1892   -0.1549 H       1  UNL1        0.0000
    118 H          -5.8037    5.2106    2.0739 H       1  UNL1        0.0000
    119 H          -5.4937    3.4872    2.2821 H       1  UNL1        0.0000
    120 H          -3.3434    5.6580    2.0435 H       1  UNL1        0.0000
    121 H          -3.7818    4.8059    3.5183 H       1  UNL1        0.0000
    122 H          -1.7572    3.7472    2.5524 H       1  UNL1        0.0000
    123 H          -3.1082    2.6304    2.4723 H       1  UNL1        0.0000
    124 H           2.1348    6.0595    0.2195 H       1  UNL1        0.0000
    125 H           2.6218    7.7653   -1.5530 H       1  UNL1        0.0000
    126 H           0.9019    8.3800   -3.2065 H       1  UNL1        0.0000
    127 O          -4.9532    0.0276    0.9690 O.2     1  UNL1        0.0000
    128 O          -4.1601   -4.4800    0.3433 O.2     1  UNL1        0.0000
    129 O           3.1742   -1.9123   -3.2565 O.2     1  UNL1        0.0000
    130 O           3.4838   -4.4903    0.5836 O.2     1  UNL1        0.0000
    131 O           3.4950   -1.1220    0.3162 O.2     1  UNL1        0.0000
    132 O           4.1238    2.4976    3.0906 O.2     1  UNL1        0.0000
    133 O          -3.0994    5.3229   -1.8184 O.2     1  UNL1        0.0000
    134 O           0.1208    4.0700    1.2369 O.2     1  UNL1        0.0000
    135 H          -4.7513   -5.1806    3.1510 H       1  UNL1        0.0000
    136 H           6.3536   -3.9540    0.9438 H       1  UNL1        0.0000
    137 H           4.1915   -3.1362    2.4400 H       1  UNL1        0.0000
    138 H          -1.3682    7.3107   -3.1463 H       1  UNL1        0.0000
@<TRIPOS>BOND
     1     1    12    1
     2     1    14    1
     3     2    11    1
     4     2    13    1
     5     2     1    1
     6     3    61    1
     7     3    14    1
     8     4    47    1
     9     4    12    1
    10     5     9    1
    11     6     7    1
    12     7     1    1
    13     8     2    1
    14     8     6    1
    15     9     1    1
    16    10     2    1
    17    10     5    1
    18    11     4    1
    19    13     3    1
    20    15    25   am
    21    15    32   am
    22    16    46   am
    23    17    60   am
    24    18    67   am
    25    18    61    1
    26    19     6    1
    27    19    15    1
    28    20    76    1
    29    20    19    1
    30    21    20    1
    31    21    78    1
    32    22    21    1
    33    22    23    1
    34    23    24    1
    35    23    82    1
    36    24    83    1
    37    24    19    1
    38    25    26    1
    39    26    31   ar
    40    26    27   ar
    41    27    28   ar
    42    28    29   ar
    43    28    85    1
    44    29    86    1
    45    30    87    1
    46    30    29   ar
    47    31    30   ar
    48    32    31    1
    49    33    16    1
    50    33     5    1
    51    33    38    1
    52    34    33    1
    53    35    90    1
    54    35    34    1
    55    35    36    1
    56    36    37    1
    57    37    38    1
    58    37    95    1
    59    37    94    1
    60    38    97    1
    61    39    40    1
    62    39    16   am
    63    40    45   ar
    64    41    40   ar
    65    41    42   ar
    66    42    43   ar
    67    43    44   ar
    68    43   100    1
    69    44   136    1
    70    45    46    1
    71    45    44   ar
    72    46   130    2
    73    47    52    1
    74    47    17    1
    75    48    49    1
    76    48    47    1
    77    49    50    1
    78    49   104    1
    79    50   105    1
    80    50    51    1
    81    51   107    1
    82    51   108    1
    83    52    51    1
    84    52   109    1
    85    53    17   am
    86    53    54    1
    87    54    55   ar
    88    54    59   ar
    89    55    56   ar
    90    56   111    1
    91    56    57   ar
    92    57   112    1
    93    58    57   ar
    94    58   113    1
    95    59    58   ar
    96    60   132    2
    97    60    59    1
    98    61    66    1
    99    62   114    1
   100    62    63    1
   101    62    61    1
   102    63    64    1
   103    64   118    1
   104    64   119    1
   105    64    65    1
   106    65   121    1
   107    66    65    1
   108    66   123    1
   109    66   122    1
   110    67   134    2
   111    68    67    1
   112    69    68   ar
   113    69   124    1
   114    70    69   ar
   115    71    72   ar
   116    71    70   ar
   117    72    73   ar
   118    73    74    1
   119    73    68   ar
   120    74    18   am
   121    75    20    1
   122    77    21    1
   123    79    22    1
   124    80    22    1
   125    81    23    1
   126    84    24    1
   127    88    34    1
   128    89    34    1
   129    91    35    1
   130    92    36    1
   131    93    36    1
   132    96    38    1
   133    98    41    1
   134    99    42    1
   135   101    48    1
   136   102    48    1
   137   103    49    1
   138   106    50    1
   139   110    52    1
   140   115    62    1
   141   116    63    1
   142   117    63    1
   143   120    65    1
   144   125    70    1
   145   126    71    1
   146   127    32    2
   147   128    25    2
   148   129    39    2
   149   131    53    2
   150   133    74    2
   151   135    27    1
   152   137    55    1
   153   138    72    1
