@<TRIPOS>MOLECULE
RhRh_S-TCPTTL4_fromcarbene_20kcal_6_sp
 134 145 0 0 0
SMALL
GASTEIGER

@<TRIPOS>ATOM
      1 Rh          0.2509   -2.9168    1.9043 Rh      1  UNL1        0.0000
      2 Rh         -0.0509   -1.4924    0.0050 Rh      1  UNL1        0.0000
      3 C           2.0216   -3.4630   -0.3077 C.3     1  UNL1        0.0000
      4 C          -1.6933   -0.8239    2.2873 C.3     1  UNL1        0.0000
      5 C          -1.7752   -3.8038    0.0533 C.3     1  UNL1        0.0000
      6 C           1.8431   -0.4974    1.9139 C.3     1  UNL1        0.0000
      7 O          -1.1943   -1.8348    2.8787 O.3     1  UNL1        0.0000
      8 O          -1.4152   -0.4317    1.1164 O.3     1  UNL1        0.0000
      9 O           1.5823   -1.5091    2.6272 O.3     1  UNL1        0.0000
     10 O           1.4598   -0.3161    0.7136 O.3     1  UNL1        0.0000
     11 O           1.7135   -3.9005    0.8391 O.3     1  UNL1        0.0000
     12 O           1.3906   -2.5756   -0.9671 O.3     1  UNL1        0.0000
     13 O          -1.1742   -4.1823    1.1079 O.3     1  UNL1        0.0000
     14 O          -1.5582   -2.7334   -0.5902 O.3     1  UNL1        0.0000
     15 N          -3.0170    1.2251    2.4000 N.am    1  UNL1        0.0000
     16 N           2.6237    1.7770    1.6199 N.am    1  UNL1        0.0000
     17 N           4.3028   -2.9292   -0.9022 N.am    1  UNL1        0.0000
     18 N          -3.8638   -3.8972   -1.1754 N.am    1  UNL1        0.0000
     19 CL         -1.8505    5.6216    3.1862 Cl      1  UNL1        0.0000
     20 CL         -2.9294    7.3003    0.7397 Cl      1  UNL1        0.0000
     21 CL         -4.4356    5.8708   -1.6057 Cl      1  UNL1        0.0000
     22 CL         -4.8872    2.7555   -1.5369 Cl      1  UNL1        0.0000
     23 CL          5.6063    3.6051   -1.3882 Cl      1  UNL1        0.0000
     24 CL          3.9300    5.4200   -3.3545 Cl      1  UNL1        0.0000
     25 CL          0.8203    5.6403   -3.0231 Cl      1  UNL1        0.0000
     26 CL         -0.6454    4.0590   -0.7353 Cl      1  UNL1        0.0000
     27 CL          6.6244   -0.3407   -3.9586 Cl      1  UNL1        0.0000
     28 CL          8.4468    1.6156   -2.2803 Cl      1  UNL1        0.0000
     29 CL          8.4151    1.4989    0.8490 Cl      1  UNL1        0.0000
     30 CL          6.5941   -0.6009    2.3411 Cl      1  UNL1        0.0000
     31 CL         -4.1462   -0.7911   -4.5871 Cl      1  UNL1        0.0000
     32 CL         -6.6095    1.0623   -3.9346 Cl      1  UNL1        0.0000
     33 CL         -8.2516    0.6324   -1.3023 Cl      1  UNL1        0.0000
     34 CL         -7.5656   -1.7722    0.6197 Cl      1  UNL1        0.0000
     35 C          -2.6961   -0.0115    3.0985 C.3     1  UNL1        0.0000
     36 C          -2.5405    2.4472    2.9057 C.2     1  UNL1        0.0000
     37 C          -2.9275    3.4820    1.9030 C.ar    1  UNL1        0.0000
     38 C          -2.7126    4.8507    1.9003 C.ar    1  UNL1        0.0000
     39 C          -3.1955    5.5921    0.8007 C.ar    1  UNL1        0.0000
     40 C          -3.8687    4.9477   -0.2560 C.ar    1  UNL1        0.0000
     41 C          -4.0730    3.5495   -0.2337 C.ar    1  UNL1        0.0000
     42 C          -3.5931    2.8404    0.8570 C.ar    1  UNL1        0.0000
     43 C          -3.6586    1.3721    1.1647 C.2     1  UNL1        0.0000
     44 C          -3.9237   -0.8474    3.6206 C.3     1  UNL1        0.0000
     45 C          -3.5012   -1.5336    4.9331 C.3     1  UNL1        0.0000
     46 C          -5.0884    0.1124    3.9140 C.3     1  UNL1        0.0000
     47 C          -4.3691   -1.9112    2.6079 C.3     1  UNL1        0.0000
     48 C           2.7190    0.6112    2.5032 C.3     1  UNL1        0.0000
     49 C           3.7319    2.1662    0.8587 C.2     1  UNL1        0.0000
     50 C           3.2217    3.1109   -0.1758 C.ar    1  UNL1        0.0000
     51 C           3.8950    3.7716   -1.1920 C.ar    1  UNL1        0.0000
     52 C           3.1359    4.5707   -2.0741 C.ar    1  UNL1        0.0000
     53 C           1.7384    4.6697   -1.9243 C.ar    1  UNL1        0.0000
     54 C           1.0746    3.9762   -0.8880 C.ar    1  UNL1        0.0000
     55 C           1.8380    3.2115   -0.0195 C.ar    1  UNL1        0.0000
     56 C           1.4324    2.3603    1.1488 C.2     1  UNL1        0.0000
     57 C           2.5452    0.9095    4.0287 C.3     1  UNL1        0.0000
     58 C           1.0741    1.0035    4.4646 C.3     1  UNL1        0.0000
     59 C           3.2508   -0.2134    4.8141 C.3     1  UNL1        0.0000
     60 C           3.2607    2.2392    4.3260 C.3     1  UNL1        0.0000
     61 C           3.2812   -3.9767   -1.0151 C.3     1  UNL1        0.0000
     62 C           4.8533   -2.3251   -2.0514 C.2     1  UNL1        0.0000
     63 C           5.7851   -1.2691   -1.5447 C.ar    1  UNL1        0.0000
     64 C           6.6053   -0.3852   -2.2292 C.ar    1  UNL1        0.0000
     65 C           7.4201    0.4817   -1.4681 C.ar    1  UNL1        0.0000
     66 C           7.4104    0.4292   -0.0613 C.ar    1  UNL1        0.0000
     67 C           6.5737   -0.4838    0.6156 C.ar    1  UNL1        0.0000
     68 C           5.7529   -1.2972   -0.1480 C.ar    1  UNL1        0.0000
     69 C           4.7208   -2.2936    0.2767 C.2     1  UNL1        0.0000
     70 C           3.7812   -5.4054   -0.6705 C.3     1  UNL1        0.0000
     71 C           2.6076   -6.3739   -0.9094 C.3     1  UNL1        0.0000
     72 C           4.9192   -5.7424   -1.6519 C.3     1  UNL1        0.0000
     73 C           4.2988   -5.5561    0.7687 C.3     1  UNL1        0.0000
     74 C          -2.8571   -4.7253   -0.5068 C.3     1  UNL1        0.0000
     75 C          -3.7024   -3.1148   -2.3353 C.2     1  UNL1        0.0000
     76 C          -4.8012   -2.0960   -2.2895 C.ar    1  UNL1        0.0000
     77 C          -5.0956   -1.0627   -3.1662 C.ar    1  UNL1        0.0000
     78 C          -6.1909   -0.2286   -2.8569 C.ar    1  UNL1        0.0000
     79 C          -6.9432   -0.4334   -1.6844 C.ar    1  UNL1        0.0000
     80 C          -6.6380   -1.5015   -0.8151 C.ar    1  UNL1        0.0000
     81 C          -5.5668   -2.3184   -1.1442 C.ar    1  UNL1        0.0000
     82 C          -4.9843   -3.4881   -0.4236 C.2     1  UNL1        0.0000
     83 C          -2.2513   -5.9298   -1.3109 C.3     1  UNL1        0.0000
     84 C          -1.8469   -6.9987   -0.2770 C.3     1  UNL1        0.0000
     85 C          -3.3343   -6.5004   -2.2384 C.3     1  UNL1        0.0000
     86 C          -1.0060   -5.5342   -2.1236 C.3     1  UNL1        0.0000
     87 H          -2.1481    0.3349    3.9801 H       1  UNL1        0.0000
     88 H          -4.3267   -2.1434    5.3128 H       1  UNL1        0.0000
     89 H          -3.2454   -0.7945    5.7005 H       1  UNL1        0.0000
     90 H          -2.6377   -2.1829    4.7774 H       1  UNL1        0.0000
     91 H          -5.8856   -0.4359    4.4246 H       1  UNL1        0.0000
     92 H          -5.5114    0.5289    2.9965 H       1  UNL1        0.0000
     93 H          -4.7779    0.9374    4.5638 H       1  UNL1        0.0000
     94 H          -5.2677   -2.4202    2.9645 H       1  UNL1        0.0000
     95 H          -3.5989   -2.6741    2.4688 H       1  UNL1        0.0000
     96 H          -4.5960   -1.4590    1.6436 H       1  UNL1        0.0000
     97 H           3.7513    0.2682    2.3721 H       1  UNL1        0.0000
     98 H           1.0290    1.2194    5.5367 H       1  UNL1        0.0000
     99 H           0.5518    0.0586    4.2946 H       1  UNL1        0.0000
    100 H           0.5376    1.7933    3.9391 H       1  UNL1        0.0000
    101 H           3.1791   -0.0089    5.8868 H       1  UNL1        0.0000
    102 H           4.3126   -0.2697    4.5514 H       1  UNL1        0.0000
    103 H           2.7977   -1.1849    4.6150 H       1  UNL1        0.0000
    104 H           3.2857    2.4063    5.4067 H       1  UNL1        0.0000
    105 H           2.7425    3.0868    3.8696 H       1  UNL1        0.0000
    106 H           4.2927    2.2288    3.9596 H       1  UNL1        0.0000
    107 H           3.0277   -3.9705   -2.0787 H       1  UNL1        0.0000
    108 H           2.9495   -7.4061   -0.7896 H       1  UNL1        0.0000
    109 H           2.2055   -6.2723   -1.9235 H       1  UNL1        0.0000
    110 H           1.7966   -6.2035   -0.1978 H       1  UNL1        0.0000
    111 H           5.2584   -6.7694   -1.4871 H       1  UNL1        0.0000
    112 H           5.7797   -5.0826   -1.5058 H       1  UNL1        0.0000
    113 H           4.5971   -5.6503   -2.6936 H       1  UNL1        0.0000
    114 H           4.5949   -6.5974    0.9333 H       1  UNL1        0.0000
    115 H           3.5380   -5.2853    1.4998 H       1  UNL1        0.0000
    116 H           5.1775   -4.9320    0.9475 H       1  UNL1        0.0000
    117 H          -3.3944   -5.1424    0.3471 H       1  UNL1        0.0000
    118 H          -1.3860   -7.8505   -0.7863 H       1  UNL1        0.0000
    119 H          -2.7180   -7.3655    0.2765 H       1  UNL1        0.0000
    120 H          -1.1280   -6.6012    0.4440 H       1  UNL1        0.0000
    121 H          -2.9764   -7.4328   -2.6857 H       1  UNL1        0.0000
    122 H          -3.5703   -5.8071   -3.0483 H       1  UNL1        0.0000
    123 H          -4.2547   -6.7222   -1.6880 H       1  UNL1        0.0000
    124 H          -0.6372   -6.4103   -2.6666 H       1  UNL1        0.0000
    125 H          -0.1993   -5.1962   -1.4666 H       1  UNL1        0.0000
    126 H          -1.2266   -4.7428   -2.8382 H       1  UNL1        0.0000
    127 O          -2.8760   -3.2701   -3.2046 O.2     1  UNL1        0.0000
    128 O           4.2871   -2.4953    1.3904 O.2     1  UNL1        0.0000
    129 O          -5.3521   -4.0138    0.6046 O.2     1  UNL1        0.0000
    130 O           4.5984   -2.6442   -3.1903 O.2     1  UNL1        0.0000
    131 O           0.3251    2.2022    1.6115 O.2     1  UNL1        0.0000
    132 O           4.8662    1.7714    1.0286 O.2     1  UNL1        0.0000
    133 O          -1.9618    2.5822    3.9613 O.2     1  UNL1        0.0000
    134 O          -4.1845    0.4973    0.5104 O.2     1  UNL1        0.0000
@<TRIPOS>BOND
     1     1     9    1
     2     1     7    1
     3     2    10    1
     4     2     8    1
     5     2     1    1
     6     3    61    1
     7     3    11    1
     8     4     7    1
     9     4    35    1
    10     5    74    1
    11     5    13    1
    12     6    48    1
    13     6     9    1
    14     8     4    1
    15    10     6    1
    16    11     1    1
    17    12     3    1
    18    12     2    1
    19    13     1    1
    20    14     2    1
    21    14     5    1
    22    15    36   am
    23    15    35    1
    24    16    48    1
    25    17    69   am
    26    18    74    1
    27    18    82   am
    28    20    39    1
    29    21    40    1
    30    22    41    1
    31    23    51    1
    32    24    52    1
    33    25    53    1
    34    27    64    1
    35    28    65    1
    36    31    77    1
    37    32    78    1
    38    35    44    1
    39    35    87    1
    40    36   133    2
    41    37    36    1
    42    38    37   ar
    43    38    19    1
    44    39    38   ar
    45    40    41   ar
    46    40    39   ar
    47    41    42   ar
    48    42    43    1
    49    42    37   ar
    50    43    15   am
    51    44    46    1
    52    44    45    1
    53    45    88    1
    54    45    89    1
    55    46    91    1
    56    46    93    1
    57    47    94    1
    58    47    44    1
    59    48    97    1
    60    48    57    1
    61    49   132    2
    62    49    16   am
    63    50    55   ar
    64    50    49    1
    65    51    50   ar
    66    52    53   ar
    67    52    51   ar
    68    53    54   ar
    69    54    26    1
    70    54    55   ar
    71    55    56    1
    72    56   131    2
    73    56    16   am
    74    57    60    1
    75    57    58    1
    76    57    59    1
    77    58    98    1
    78    59   101    1
    79    60   104    1
    80    61   107    1
    81    61    17    1
    82    61    70    1
    83    62    63    1
    84    62    17   am
    85    63    68   ar
    86    64    63   ar
    87    64    65   ar
    88    65    66   ar
    89    66    67   ar
    90    66    29    1
    91    67    30    1
    92    68    69    1
    93    68    67   ar
    94    69   128    2
    95    70    73    1
    96    71   108    1
    97    71    70    1
    98    71   110    1
    99    72   112    1
   100    72   111    1
   101    72    70    1
   102    73   114    1
   103    73   116    1
   104    73   115    1
   105    74   117    1
   106    75    76    1
   107    75    18   am
   108    76    81   ar
   109    77    78   ar
   110    77    76   ar
   111    78    79   ar
   112    79    33    1
   113    79    80   ar
   114    80    34    1
   115    81    80   ar
   116    81    82    1
   117    82   129    2
   118    83    74    1
   119    83    84    1
   120    84   119    1
   121    84   120    1
   122    85   123    1
   123    85    83    1
   124    86   125    1
   125    86    83    1
   126    90    45    1
   127    92    46    1
   128    95    47    1
   129    96    47    1
   130    99    58    1
   131   100    58    1
   132   102    59    1
   133   103    59    1
   134   105    60    1
   135   106    60    1
   136   109    71    1
   137   113    72    1
   138   118    84    1
   139   121    85    1
   140   122    85    1
   141   124    86    1
   142   126    86    1
   143   127    75    2
   144   130    62    2
   145   134    43    2
