@<TRIPOS>MOLECULE
RhRh_Ad-O2C4_3-1_sp
 114 129 0 0 0
SMALL
GASTEIGER

@<TRIPOS>ATOM
      1 Rh         -0.0131    0.0128    1.2300 Rh      1  UNL1        0.0000
      2 Rh          0.0194   -0.0186   -1.1576 Rh      1  UNL1        0.0000
      3 C           1.9139   -1.8217    0.0894 C.3     1  UNL1        0.0000
      4 C          -1.9074    1.8161   -0.0203 C.3     1  UNL1        0.0000
      5 C          -1.8198   -1.9105    0.0395 C.3     1  UNL1        0.0000
      6 C           1.8251    1.9057    0.0392 C.3     1  UNL1        0.0000
      7 O           1.4066    1.4978    1.1696 O.3     1  UNL1        0.0000
      8 O           1.4356    1.4686   -1.0933 O.3     1  UNL1        0.0000
      9 O          -1.3998   -1.5028   -1.0931 O.3     1  UNL1        0.0000
     10 O          -1.4302   -1.4748    1.1699 O.3     1  UNL1        0.0000
     11 O           1.4754   -1.4052    1.2091 O.3     1  UNL1        0.0000
     12 O           1.5046   -1.4338   -1.0539 O.3     1  UNL1        0.0000
     13 O          -1.4684    1.3988   -1.1391 O.3     1  UNL1        0.0000
     14 O          -1.4989    1.4286    1.1238 O.3     1  UNL1        0.0000
     15 C           5.5830    4.0326    0.6059 C.3     1  UNL1        0.0000
     16 C           4.3414    4.5598    1.3489 C.3     1  UNL1        0.0000
     17 C           5.1853    3.5986   -0.8167 C.3     1  UNL1        0.0000
     18 C           4.1265    2.4854   -0.7384 C.3     1  UNL1        0.0000
     19 C           3.2807    3.4472    1.4336 C.3     1  UNL1        0.0000
     20 C           2.8738    3.0049    0.0144 C.3     1  UNL1        0.0000
     21 C           2.3013    4.2234   -0.7560 C.3     1  UNL1        0.0000
     22 C           3.7620    5.7668    0.5881 C.3     1  UNL1        0.0000
     23 C           4.6027    4.8042   -1.5778 C.3     1  UNL1        0.0000
     24 C           3.3623    5.3346   -0.8345 C.3     1  UNL1        0.0000
     25 C          -4.2399    2.2964    0.7305 C.3     1  UNL1        0.0000
     26 C          -5.3536    3.3564    0.7788 C.3     1  UNL1        0.0000
     27 C          -3.0093    2.8624   -0.0252 C.3     1  UNL1        0.0000
     28 C          -3.4277    3.2536   -1.4560 C.3     1  UNL1        0.0000
     29 C          -5.7622    3.7402   -0.6552 C.3     1  UNL1        0.0000
     30 C          -4.5431    4.3132   -1.4015 C.3     1  UNL1        0.0000
     31 C          -4.0304    5.5635   -0.6631 C.3     1  UNL1        0.0000
     32 C          -4.8377    4.6056    1.5177 C.3     1  UNL1        0.0000
     33 C          -2.5042    4.1240    0.7226 C.3     1  UNL1        0.0000
     34 C          -3.6201    5.1818    0.7709 C.3     1  UNL1        0.0000
     35 C          -4.1218   -2.4722   -0.7416 C.3     1  UNL1        0.0000
     36 C          -5.1915   -3.5750   -0.8204 C.3     1  UNL1        0.0000
     37 C          -2.8755   -3.0031    0.0147 C.3     1  UNL1        0.0000
     38 C          -3.2905   -3.4379    1.4338 C.3     1  UNL1        0.0000
     39 C          -5.5964   -4.0023    0.6022 C.3     1  UNL1        0.0000
     40 C          -4.3617   -4.5404    1.3489 C.3     1  UNL1        0.0000
     41 C          -3.7927   -5.7546    0.5916 C.3     1  UNL1        0.0000
     42 C          -4.6192   -4.7878   -1.5779 C.3     1  UNL1        0.0000
     43 C          -2.3139   -4.2282   -0.7525 C.3     1  UNL1        0.0000
     44 C          -3.3857   -5.3289   -0.8309 C.3     1  UNL1        0.0000
     45 C           3.4377   -3.2595    1.5216 C.3     1  UNL1        0.0000
     46 C           4.5527   -4.3194    1.4642 C.3     1  UNL1        0.0000
     47 C           3.0157   -2.8682    0.0920 C.3     1  UNL1        0.0000
     48 C           4.2443   -2.3027   -0.6674 C.3     1  UNL1        0.0000
     49 C           5.7699   -3.7468    0.7144 C.3     1  UNL1        0.0000
     50 C           5.3576   -3.3630   -0.7184 C.3     1  UNL1        0.0000
     51 C           4.8394   -4.6122   -1.4558 C.3     1  UNL1        0.0000
     52 C           4.0376   -5.5697    0.7271 C.3     1  UNL1        0.0000
     53 C           2.5083   -4.1296   -0.6548 C.3     1  UNL1        0.0000
     54 C           3.6236   -5.1879   -0.7059 C.3     1  UNL1        0.0000
     55 H           6.0150    3.1840    1.1511 H       1  UNL1        0.0000
     56 H           6.3538    4.8121    0.5594 H       1  UNL1        0.0000
     57 H           4.6217    4.8646    2.3641 H       1  UNL1        0.0000
     58 H           6.0659    3.2177   -1.3479 H       1  UNL1        0.0000
     59 H           4.5320    1.6119   -0.2117 H       1  UNL1        0.0000
     60 H           3.8350    2.1550   -1.7398 H       1  UNL1        0.0000
     61 H           2.3977    3.7998    1.9767 H       1  UNL1        0.0000
     62 H           3.6700    2.5880    1.9897 H       1  UNL1        0.0000
     63 H           1.9957    3.9064   -1.7577 H       1  UNL1        0.0000
     64 H           1.4041    4.5907   -0.2411 H       1  UNL1        0.0000
     65 H           4.5034    6.5742    0.5411 H       1  UNL1        0.0000
     66 H           2.8879    6.1622    1.1206 H       1  UNL1        0.0000
     67 H           5.3575    5.5962   -1.6600 H       1  UNL1        0.0000
     68 H           4.3316    4.5090   -2.5990 H       1  UNL1        0.0000
     69 H           2.9443    6.1903   -1.3783 H       1  UNL1        0.0000
     70 H          -4.5972    1.3932    0.2190 H       1  UNL1        0.0000
     71 H          -3.9396    2.0017    1.7405 H       1  UNL1        0.0000
     72 H          -6.2179    2.9430    1.3125 H       1  UNL1        0.0000
     73 H          -3.7697    2.3643   -1.9958 H       1  UNL1        0.0000
     74 H          -2.5595    3.6384   -2.0012 H       1  UNL1        0.0000
     75 H          -6.5712    4.4809   -0.6300 H       1  UNL1        0.0000
     76 H          -6.1473    2.8598   -1.1849 H       1  UNL1        0.0000
     77 H          -4.8310    4.5822   -2.4248 H       1  UNL1        0.0000
     78 H          -3.1733    5.9910   -1.1984 H       1  UNL1        0.0000
     79 H          -4.8116    6.3335   -0.6381 H       1  UNL1        0.0000
     80 H          -4.5595    4.3458    2.5466 H       1  UNL1        0.0000
     81 H          -5.6319    5.3600    1.5783 H       1  UNL1        0.0000
     82 H          -2.1903    3.8437    1.7326 H       1  UNL1        0.0000
     83 H          -1.6228    4.5250    0.2055 H       1  UNL1        0.0000
     84 H          -3.2494    6.0686    1.2990 H       1  UNL1        0.0000
     85 H          -4.5195   -1.5942   -0.2162 H       1  UNL1        0.0000
     86 H          -3.8249   -2.1465   -1.7431 H       1  UNL1        0.0000
     87 H          -6.0671   -3.1863   -1.3542 H       1  UNL1        0.0000
     88 H          -3.6727   -2.5735    1.9867 H       1  UNL1        0.0000
     89 H          -2.4124   -3.7979    1.9802 H       1  UNL1        0.0000
     90 H          -6.3747   -4.7741    0.5554 H       1  UNL1        0.0000
     91 H          -6.0211   -3.1484    1.1449 H       1  UNL1        0.0000
     92 H          -4.6473   -4.8403    2.3641 H       1  UNL1        0.0000
     93 H          -2.9237   -6.1576    1.1267 H       1  UNL1        0.0000
     94 H          -4.5420   -6.5546    0.5447 H       1  UNL1        0.0000
     95 H          -4.3429   -4.4973   -2.5991 H       1  UNL1        0.0000
     96 H          -5.3818   -5.5722   -1.6602 H       1  UNL1        0.0000
     97 H          -2.0032   -3.9161   -1.7539 H       1  UNL1        0.0000
     98 H          -1.4210   -4.6035   -0.2360 H       1  UNL1        0.0000
     99 H          -2.9752   -6.1898   -1.3722 H       1  UNL1        0.0000
    100 H           3.7814   -2.3704    2.0605 H       1  UNL1        0.0000
    101 H           2.5709   -3.6440    2.0692 H       1  UNL1        0.0000
    102 H           4.8433   -4.5885    2.4866 H       1  UNL1        0.0000
    103 H           4.6033   -1.3991   -0.1579 H       1  UNL1        0.0000
    104 H           3.9411   -2.0084   -1.6766 H       1  UNL1        0.0000
    105 H           6.5786   -4.4877    0.6871 H       1  UNL1        0.0000
    106 H           6.1567   -2.8665    1.2431 H       1  UNL1        0.0000
    107 H           6.2205   -2.9499   -1.2544 H       1  UNL1        0.0000
    108 H           4.5586   -4.3525   -2.4840 H       1  UNL1        0.0000
    109 H           5.6332   -5.3669   -1.5184 H       1  UNL1        0.0000
    110 H           3.1817   -5.9968    1.2647 H       1  UNL1        0.0000
    111 H           4.8185   -6.3399    0.7001 H       1  UNL1        0.0000
    112 H           1.6277   -4.5305   -0.1363 H       1  UNL1        0.0000
    113 H           2.1921   -3.8491   -1.6640 H       1  UNL1        0.0000
    114 H           3.2512   -6.0746   -1.2329 H       1  UNL1        0.0000
@<TRIPOS>BOND
     1     2    13    1
     2     2     8    1
     3     2     9    1
     4     2    12    1
     5     2     1    1
     6     3    12    1
     7     3    47    1
     8     3    11    1
     9     4    13    1
    10     4    14    1
    11     5     9    1
    12     5    10    1
    13     6     8    1
    14     6     7    1
    15     7     1    1
    16    10     1    1
    17    11     1    1
    18    14     1    1
    19    15    55    1
    20    15    16    1
    21    16    19    1
    22    16    57    1
    23    17    58    1
    24    17    18    1
    25    17    15    1
    26    18    59    1
    27    18    20    1
    28    19    61    1
    29    19    62    1
    30    20    21    1
    31    20     6    1
    32    20    19    1
    33    21    64    1
    34    22    66    1
    35    22    16    1
    36    23    24    1
    37    23    17    1
    38    24    69    1
    39    24    21    1
    40    24    22    1
    41    25    26    1
    42    25    71    1
    43    26    72    1
    44    26    32    1
    45    27    28    1
    46    27     4    1
    47    27    33    1
    48    27    25    1
    49    28    30    1
    50    29    75    1
    51    29    26    1
    52    30    77    1
    53    30    31    1
    54    30    29    1
    55    31    79    1
    56    31    34    1
    57    32    81    1
    58    32    80    1
    59    33    34    1
    60    33    82    1
    61    34    84    1
    62    34    32    1
    63    35    85    1
    64    35    37    1
    65    36    87    1
    66    36    35    1
    67    36    39    1
    68    37    43    1
    69    37     5    1
    70    37    38    1
    71    38    89    1
    72    38    88    1
    73    39    91    1
    74    39    40    1
    75    40    38    1
    76    40    92    1
    77    41    93    1
    78    41    40    1
    79    42    44    1
    80    42    36    1
    81    43    98    1
    82    44    99    1
    83    44    43    1
    84    44    41    1
    85    45   100    1
    86    45   101    1
    87    46    45    1
    88    46   102    1
    89    47    48    1
    90    47    45    1
    91    48   103    1
    92    49   106    1
    93    49    46    1
    94    50   107    1
    95    50    48    1
    96    50    49    1
    97    51    50    1
    98    51    54    1
    99    52   110    1
   100    52    46    1
   101    53   112    1
   102    53    47    1
   103    54   114    1
   104    54    53    1
   105    54    52    1
   106    56    15    1
   107    60    18    1
   108    63    21    1
   109    65    22    1
   110    67    23    1
   111    68    23    1
   112    70    25    1
   113    73    28    1
   114    74    28    1
   115    76    29    1
   116    78    31    1
   117    83    33    1
   118    86    35    1
   119    90    39    1
   120    94    41    1
   121    95    42    1
   122    96    42    1
   123    97    43    1
   124   104    48    1
   125   105    49    1
   126   108    51    1
   127   109    51    1
   128   111    52    1
   129   113    53    1
