@<TRIPOS>MOLECULE
RhRh_ACyPentyl4_15_sp
 126 141 0 0 0
SMALL
GASTEIGER

@<TRIPOS>ATOM
      1 Rh          0.2010    0.1515   -1.0132 Rh      1  UNL1        0.0000
      2 Rh          1.0812   -0.6443    1.0643 Rh      1  UNL1        0.0000
      3 C          -0.5641   -2.5523   -0.3619 C.3     1  UNL1        0.0000
      4 C           2.7838   -1.1190   -1.2267 C.3     1  UNL1        0.0000
      5 C           1.7988    2.0724    0.4264 C.3     1  UNL1        0.0000
      6 C          -1.5078    0.5863    1.2699 C.3     1  UNL1        0.0000
      7 O          -0.7597   -1.6559   -1.2395 O.3     1  UNL1        0.0000
      8 O           0.1325   -2.4233    0.6912 O.3     1  UNL1        0.0000
      9 O          -1.3955    0.8839    0.0396 O.3     1  UNL1        0.0000
     10 O          -0.6207    0.0395    1.9919 O.3     1  UNL1        0.0000
     11 O           1.9871    1.1928    1.3188 O.3     1  UNL1        0.0000
     12 O           1.2016    1.9047   -0.6853 O.3     1  UNL1        0.0000
     13 O           2.7233   -1.3082    0.0283 O.3     1  UNL1        0.0000
     14 O           1.8729   -0.6135   -1.9517 O.3     1  UNL1        0.0000
     15 N          -2.6053   -3.8888   -0.1476 N.am    1  UNL1        0.0000
     16 N          -3.8400    1.0650    0.8765 N.am    1  UNL1        0.0000
     17 N           1.3944    4.4301    0.1433 N.am    1  UNL1        0.0000
     18 N           5.0961   -1.7385   -0.8901 N.am    1  UNL1        0.0000
     19 C          -1.2103   -3.9380   -0.6151 C.3     1  UNL1        0.0000
     20 C          -0.3859   -5.0476    0.0729 C.3     1  UNL1        0.0000
     21 C           0.8567   -5.2081   -0.8308 C.3     1  UNL1        0.0000
     22 C           0.4420   -4.6402   -2.2190 C.3     1  UNL1        0.0000
     23 C          -1.0555   -4.3072   -2.1051 C.3     1  UNL1        0.0000
     24 C          -3.7408   -3.6211   -0.9446 C.2     1  UNL1        0.0000
     25 C          -4.8961   -3.5537   -0.0049 C.ar    1  UNL1        0.0000
     26 C          -6.2395   -3.3344   -0.2631 C.ar    1  UNL1        0.0000
     27 C          -7.0984   -3.2393    0.8390 C.ar    1  UNL1        0.0000
     28 C          -6.6128   -3.3607    2.1473 C.ar    1  UNL1        0.0000
     29 C          -5.2526   -3.5845    2.3939 C.ar    1  UNL1        0.0000
     30 C          -4.4154   -3.6797    1.2938 C.ar    1  UNL1        0.0000
     31 C          -2.9400   -3.8511    1.2294 C.2     1  UNL1        0.0000
     32 C          -2.8434    0.9135    1.9549 C.3     1  UNL1        0.0000
     33 C          -3.3056   -0.2278    2.9336 C.3     1  UNL1        0.0000
     34 C          -3.4506    0.4284    4.3203 C.3     1  UNL1        0.0000
     35 C          -3.6756    1.9136    4.0118 C.3     1  UNL1        0.0000
     36 C          -2.6909    2.1599    2.8681 C.3     1  UNL1        0.0000
     37 C          -3.9855   -0.0241   -0.0081 C.2     1  UNL1        0.0000
     38 C          -4.8324    0.4334   -1.1300 C.ar    1  UNL1        0.0000
     39 C          -5.2772   -0.2471   -2.2540 C.ar    1  UNL1        0.0000
     40 C          -6.0624    0.4783   -3.1598 C.ar    1  UNL1        0.0000
     41 C          -6.3740    1.8255   -2.9347 C.ar    1  UNL1        0.0000
     42 C          -5.9062    2.4999   -1.7988 C.ar    1  UNL1        0.0000
     43 C          -5.1311    1.7766   -0.9070 C.ar    1  UNL1        0.0000
     44 C          -4.4607    2.2138    0.3567 C.2     1  UNL1        0.0000
     45 C           2.3939    3.4656    0.6456 C.3     1  UNL1        0.0000
     46 C           2.7619    3.7961    2.1018 C.3     1  UNL1        0.0000
     47 C           3.7408    4.9692    1.9503 C.3     1  UNL1        0.0000
     48 C           4.5671    4.6392    0.6795 C.3     1  UNL1        0.0000
     49 C           3.7672    3.5460   -0.0710 C.3     1  UNL1        0.0000
     50 C           1.5170    5.4199   -0.8525 C.2     1  UNL1        0.0000
     51 C           0.1317    5.9271   -1.0883 C.ar    1  UNL1        0.0000
     52 C          -0.3171    6.8944   -1.9729 C.ar    1  UNL1        0.0000
     53 C          -1.6954    7.1437   -2.0048 C.ar    1  UNL1        0.0000
     54 C          -2.5779    6.4390   -1.1767 C.ar    1  UNL1        0.0000
     55 C          -2.1156    5.4662   -0.2807 C.ar    1  UNL1        0.0000
     56 C          -0.7478    5.2354   -0.2565 C.ar    1  UNL1        0.0000
     57 C           0.0526    4.2812    0.5486 C.2     1  UNL1        0.0000
     58 C           4.0787   -1.5514   -1.9304 C.3     1  UNL1        0.0000
     59 C           4.5100   -0.5099   -3.0000 C.3     1  UNL1        0.0000
     60 C           3.7658   -0.8886   -4.3016 C.3     1  UNL1        0.0000
     61 C           3.1754   -2.3022   -4.0722 C.3     1  UNL1        0.0000
     62 C           3.8348   -2.8224   -2.7883 C.3     1  UNL1        0.0000
     63 C           5.2727   -2.9336   -0.1487 C.2     1  UNL1        0.0000
     64 C           6.0963   -2.5626    1.0356 C.ar    1  UNL1        0.0000
     65 C           6.6140   -3.3595    2.0451 C.ar    1  UNL1        0.0000
     66 C           7.3309   -2.7193    3.0631 C.ar    1  UNL1        0.0000
     67 C           7.5114   -1.3298    3.0586 C.ar    1  UNL1        0.0000
     68 C           6.9812   -0.5354    2.0353 C.ar    1  UNL1        0.0000
     69 C           6.2769   -1.1817    1.0309 C.ar    1  UNL1        0.0000
     70 C           5.5745   -0.6298   -0.1558 C.2     1  UNL1        0.0000
     71 H          -0.1494   -4.8075    1.1054 H       1  UNL1        0.0000
     72 H          -0.9982   -5.9555    0.0614 H       1  UNL1        0.0000
     73 H           1.1631   -6.2555   -0.8907 H       1  UNL1        0.0000
     74 H           1.7053   -4.6534   -0.4210 H       1  UNL1        0.0000
     75 H           0.6384   -5.3353   -3.0392 H       1  UNL1        0.0000
     76 H           0.9995   -3.7255   -2.4405 H       1  UNL1        0.0000
     77 H          -1.6711   -5.1901   -2.3001 H       1  UNL1        0.0000
     78 H          -1.3824   -3.5147   -2.7725 H       1  UNL1        0.0000
     79 H          -6.6023   -3.2304   -1.2798 H       1  UNL1        0.0000
     80 H          -8.1578   -3.0641    0.6796 H       1  UNL1        0.0000
     81 H          -7.3031   -3.2767    2.9807 H       1  UNL1        0.0000
     82 H          -4.8582   -3.6709    3.4005 H       1  UNL1        0.0000
     83 H          -4.2690   -0.6048    2.5870 H       1  UNL1        0.0000
     84 H          -2.6083   -1.0643    2.9250 H       1  UNL1        0.0000
     85 H          -2.5214    0.3120    4.8892 H       1  UNL1        0.0000
     86 H          -4.2548   -0.0255    4.9071 H       1  UNL1        0.0000
     87 H          -4.7023    2.0908    3.6680 H       1  UNL1        0.0000
     88 H          -3.4936    2.5698    4.8678 H       1  UNL1        0.0000
     89 H          -1.6688    2.1388    3.2540 H       1  UNL1        0.0000
     90 H          -2.8245    3.0930    2.3332 H       1  UNL1        0.0000
     91 H          -6.1307    3.5461   -1.6210 H       1  UNL1        0.0000
     92 H           3.2597    2.9206    2.5273 H       1  UNL1        0.0000
     93 H           1.8817    4.0105    2.7097 H       1  UNL1        0.0000
     94 H           3.1804    5.8984    1.8004 H       1  UNL1        0.0000
     95 H           4.3607    5.1084    2.8402 H       1  UNL1        0.0000
     96 H           4.6942    5.5226    0.0519 H       1  UNL1        0.0000
     97 H           5.5619    4.2655    0.9388 H       1  UNL1        0.0000
     98 H           3.6661    3.7338   -1.1374 H       1  UNL1        0.0000
     99 H           4.2433    2.5702    0.0538 H       1  UNL1        0.0000
    100 H           0.3771    7.4253   -2.6152 H       1  UNL1        0.0000
    101 H          -2.0883    7.8910   -2.6871 H       1  UNL1        0.0000
    102 H          -3.6415    6.6481   -1.2313 H       1  UNL1        0.0000
    103 H          -2.7985    4.9074    0.3499 H       1  UNL1        0.0000
    104 H           5.5917   -0.6156   -3.1231 H       1  UNL1        0.0000
    105 H           4.3188    0.5099   -2.6733 H       1  UNL1        0.0000
    106 H           2.9716   -0.1709   -4.5154 H       1  UNL1        0.0000
    107 H           4.4560   -0.8728   -5.1502 H       1  UNL1        0.0000
    108 H           3.3578   -2.9810   -4.9100 H       1  UNL1        0.0000
    109 H           2.0935   -2.2357   -3.9363 H       1  UNL1        0.0000
    110 H           3.2569   -3.5843   -2.2681 H       1  UNL1        0.0000
    111 H           4.8161   -3.2559   -3.0022 H       1  UNL1        0.0000
    112 H           7.1063    0.5419    2.0224 H       1  UNL1        0.0000
    113 O           5.4080    0.5378   -0.4494 O.2     1  UNL1        0.0000
    114 O           4.8343   -4.0301   -0.4257 O.2     1  UNL1        0.0000
    115 O          -0.3226    3.4951    1.3980 O.2     1  UNL1        0.0000
    116 O           2.5350    5.7969   -1.3971 O.2     1  UNL1        0.0000
    117 O          -4.4698    3.3354    0.8304 O.2     1  UNL1        0.0000
    118 O          -3.4688   -1.1099    0.1636 O.2     1  UNL1        0.0000
    119 O          -2.1636   -3.9340    2.1577 O.2     1  UNL1        0.0000
    120 O          -3.7758   -3.4792   -2.1510 O.2     1  UNL1        0.0000
    121 H          -5.0065   -1.2847   -2.4238 H       1  UNL1        0.0000
    122 H          -6.4311   -0.0087   -4.0570 H       1  UNL1        0.0000
    123 H          -6.9824    2.3573   -3.6594 H       1  UNL1        0.0000
    124 H           6.4588   -4.4328    2.0407 H       1  UNL1        0.0000
    125 H           7.7507   -3.3064    3.8737 H       1  UNL1        0.0000
    126 H           8.0681   -0.8639    3.8654 H       1  UNL1        0.0000
@<TRIPOS>BOND
     1     1    12    1
     2     1     9    1
     3     1     2    1
     4     2    11    1
     5     2    10    1
     6     3     8    1
     7     4    13    1
     8     5    45    1
     9     5    11    1
    10     6    32    1
    11     6    10    1
    12     7     1    1
    13     7     3    1
    14     8     2    1
    15     9     6    1
    16    12     5    1
    17    13     2    1
    18    14     4    1
    19    14     1    1
    20    15    31   am
    21    16    32    1
    22    17    57   am
    23    17    45    1
    24    18    70   am
    25    18    63   am
    26    19     3    1
    27    19    15    1
    28    19    20    1
    29    20    71    1
    30    21    74    1
    31    21    20    1
    32    22    23    1
    33    22    21    1
    34    23    19    1
    35    24    15   am
    36    24    25    1
    37    25    30   ar
    38    26    25   ar
    39    26    27   ar
    40    27    28   ar
    41    28    29   ar
    42    28    81    1
    43    29    82    1
    44    30    29   ar
    45    31    30    1
    46    31   119    2
    47    32    36    1
    48    32    33    1
    49    33    34    1
    50    34    85    1
    51    34    86    1
    52    35    34    1
    53    35    88    1
    54    36    89    1
    55    36    35    1
    56    37   118    2
    57    37    16   am
    58    38    43   ar
    59    38    37    1
    60    39    38   ar
    61    40    41   ar
    62    40    39   ar
    63    41    42   ar
    64    42    91    1
    65    42    43   ar
    66    43    44    1
    67    44   117    2
    68    44    16   am
    69    45    46    1
    70    46    92    1
    71    46    93    1
    72    47    46    1
    73    47    95    1
    74    48    97    1
    75    48    47    1
    76    49    99    1
    77    49    45    1
    78    49    48    1
    79    50    17   am
    80    51    50    1
    81    51    56   ar
    82    52    51   ar
    83    53    52   ar
    84    53    54   ar
    85    54    55   ar
    86    55    56   ar
    87    55   103    1
    88    56    57    1
    89    57   115    2
    90    58     4    1
    91    58    18    1
    92    59   105    1
    93    59    58    1
    94    60    61    1
    95    60    59    1
    96    61   109    1
    97    61    62    1
    98    62   110    1
    99    62    58    1
   100    63    64    1
   101    64    65   ar
   102    65    66   ar
   103    66   125    1
   104    67    66   ar
   105    67   126    1
   106    68    67   ar
   107    69    64   ar
   108    69    68   ar
   109    70    69    1
   110    72    20    1
   111    73    21    1
   112    75    22    1
   113    76    22    1
   114    77    23    1
   115    78    23    1
   116    79    26    1
   117    80    27    1
   118    83    33    1
   119    84    33    1
   120    87    35    1
   121    90    36    1
   122    94    47    1
   123    96    48    1
   124    98    49    1
   125   100    52    1
   126   101    53    1
   127   102    54    1
   128   104    59    1
   129   106    60    1
   130   107    60    1
   131   108    61    1
   132   111    62    1
   133   112    68    1
   134   113    70    2
   135   114    63    2
   136   116    50    2
   137   120    24    2
   138   121    39    1
   139   122    40    1
   140   123    41    1
   141   124    65    1
