@<TRIPOS>MOLECULE
RhRh_tri-pFPh-O2C4_14_sp
 150 165 0 0 0
SMALL
GASTEIGER

@<TRIPOS>ATOM
      1 Rh          0.0005    0.0008    1.1917 Rh      1  UNL1        0.0000
      2 Rh         -0.0002    0.0008   -1.1955 Rh      1  UNL1        0.0000
      3 C          -2.0190    1.6895    0.0122 C.3     1  UNL1        0.0000
      4 C           1.6929    2.0163   -0.0156 C.3     1  UNL1        0.0000
      5 C           2.0199   -1.6877    0.0115 C.3     1  UNL1        0.0000
      6 C          -1.6920   -2.0155   -0.0150 C.3     1  UNL1        0.0000
      7 O          -1.2930   -1.6023    1.1158 O.3     1  UNL1        0.0000
      8 O          -1.2456   -1.6158   -1.1366 O.3     1  UNL1        0.0000
      9 O           1.6221   -1.2381    1.1329 O.3     1  UNL1        0.0000
     10 O           1.6029   -1.2932   -1.1193 O.3     1  UNL1        0.0000
     11 O           1.2941    1.6035    1.1153 O.3     1  UNL1        0.0000
     12 O           1.2452    1.6171   -1.1372 O.3     1  UNL1        0.0000
     13 O          -1.6205    1.2406    1.1334 O.3     1  UNL1        0.0000
     14 O          -1.6030    1.2941   -1.1189 O.3     1  UNL1        0.0000
     15 F           6.6340   -2.0698    4.3740 F       1  UNL1        0.0000
     16 F          -0.4091   -7.3278    1.0117 F       1  UNL1        0.0000
     17 F           6.0315   -3.2654   -4.7176 F       1  UNL1        0.0000
     18 F          -7.3380    0.4048   -1.0208 F       1  UNL1        0.0000
     19 F          -3.2649   -6.0139    4.7241 F       1  UNL1        0.0000
     20 F          -2.0767   -6.6402   -4.3666 F       1  UNL1        0.0000
     21 F          -6.6368    2.0695    4.3720 F       1  UNL1        0.0000
     22 F          -6.0369    3.2659   -4.7142 F       1  UNL1        0.0000
     23 F           0.4055    7.3314    1.0099 F       1  UNL1        0.0000
     24 F           7.3367   -0.4074   -1.0300 F       1  UNL1        0.0000
     25 F           2.0811    6.6529   -4.3561 F       1  UNL1        0.0000
     26 F           3.2687    5.9966    4.7336 F       1  UNL1        0.0000
     27 C          -2.8775   -3.0144   -0.0861 C.3     1  UNL1        0.0000
     28 C          -4.1143   -2.0982   -0.3197 C.ar    1  UNL1        0.0000
     29 C          -5.2694   -2.1813    0.4655 C.ar    1  UNL1        0.0000
     30 C          -6.3650   -1.3476    0.2266 C.ar    1  UNL1        0.0000
     31 C          -6.2973   -0.4284   -0.8101 C.ar    1  UNL1        0.0000
     32 C          -5.1822   -0.3411   -1.6341 C.ar    1  UNL1        0.0000
     33 C          -4.1015   -1.1792   -1.3835 C.ar    1  UNL1        0.0000
     34 C          -2.6597   -3.9416   -1.2918 C.ar    1  UNL1        0.0000
     35 C          -1.3849   -4.4619   -1.5568 C.ar    1  UNL1        0.0000
     36 C          -1.1796   -5.3695   -2.5902 C.ar    1  UNL1        0.0000
     37 C          -2.2686   -5.7618   -3.3608 C.ar    1  UNL1        0.0000
     38 C          -3.5459   -5.2762   -3.1202 C.ar    1  UNL1        0.0000
     39 C          -3.7321   -4.3649   -2.0795 C.ar    1  UNL1        0.0000
     40 C          -2.9900   -3.8316    1.2137 C.ar    1  UNL1        0.0000
     41 C          -2.9827   -5.2304    1.1950 C.ar    1  UNL1        0.0000
     42 C          -3.0736   -5.9768    2.3711 C.ar    1  UNL1        0.0000
     43 C          -3.1781   -5.3065    3.5794 C.ar    1  UNL1        0.0000
     44 C          -3.2033   -3.9166    3.6414 C.ar    1  UNL1        0.0000
     45 C          -3.1131   -3.1897    2.4587 C.ar    1  UNL1        0.0000
     46 C           3.0192   -2.8727    0.0845 C.3     1  UNL1        0.0000
     47 C           2.1012   -4.1087    0.3162 C.ar    1  UNL1        0.0000
     48 C           1.1803   -4.0944    1.3783 C.ar    1  UNL1        0.0000
     49 C           0.3399   -5.1736    1.6272 C.ar    1  UNL1        0.0000
     50 C           0.4269   -6.2888    0.8032 C.ar    1  UNL1        0.0000
     51 C           1.3479   -6.3581   -0.2318 C.ar    1  UNL1        0.0000
     52 C           2.1840   -5.2638   -0.4689 C.ar    1  UNL1        0.0000
     53 C           3.9437   -2.6546    1.2922 C.ar    1  UNL1        0.0000
     54 C           4.4666   -1.3805    1.5552 C.ar    1  UNL1        0.0000
     55 C           5.3714   -1.1746    2.5909 C.ar    1  UNL1        0.0000
     56 C           5.7582   -2.2624    3.3660 C.ar    1  UNL1        0.0000
     57 C           5.2702   -3.5390    3.1274 C.ar    1  UNL1        0.0000
     58 C           4.3616   -3.7260    2.0844 C.ar    1  UNL1        0.0000
     59 C           3.8395   -2.9860   -1.2134 C.ar    1  UNL1        0.0000
     60 C           5.2383   -2.9850   -1.1905 C.ar    1  UNL1        0.0000
     61 C           5.9879   -3.0777   -2.3645 C.ar    1  UNL1        0.0000
     62 C           5.3209   -3.1774   -3.5750 C.ar    1  UNL1        0.0000
     63 C           3.9312   -3.1970   -3.6412 C.ar    1  UNL1        0.0000
     64 C           3.2010   -3.1056   -2.4605 C.ar    1  UNL1        0.0000
     65 C           2.8795    3.0137   -0.0865 C.3     1  UNL1        0.0000
     66 C           4.1151    2.0967   -0.3230 C.ar    1  UNL1        0.0000
     67 C           4.0989    1.1762   -1.3853 C.ar    1  UNL1        0.0000
     68 C           5.1787    0.3375   -1.6380 C.ar    1  UNL1        0.0000
     69 C           6.2965    0.4261   -0.8177 C.ar    1  UNL1        0.0000
     70 C           6.3675    1.3468    0.2175 C.ar    1  UNL1        0.0000
     71 C           5.2727    2.1808    0.4587 C.ar    1  UNL1        0.0000
     72 C           2.6620    3.9444   -1.2895 C.ar    1  UNL1        0.0000
     73 C           3.7359    4.3740   -2.0720 C.ar    1  UNL1        0.0000
     74 C           3.5503    5.2888   -3.1098 C.ar    1  UNL1        0.0000
     75 C           2.2723    5.7712   -3.3530 C.ar    1  UNL1        0.0000
     76 C           1.1820    5.3726   -2.5876 C.ar    1  UNL1        0.0000
     77 C           1.3866    4.4617   -1.5569 C.ar    1  UNL1        0.0000
     78 C           2.9933    3.8269    1.2156 C.ar    1  UNL1        0.0000
     79 C           3.1213    3.1806    2.4579 C.ar    1  UNL1        0.0000
     80 C           3.2118    3.9032    3.6431 C.ar    1  UNL1        0.0000
     81 C           3.1816    5.2933    3.5864 C.ar    1  UNL1        0.0000
     82 C           3.0717    5.9679    2.3810 C.ar    1  UNL1        0.0000
     83 C           2.9807    5.2256    1.2021 C.ar    1  UNL1        0.0000
     84 C          -3.0197    2.8734    0.0848 C.3     1  UNL1        0.0000
     85 C          -2.1029    4.1104    0.3163 C.ar    1  UNL1        0.0000
     86 C          -1.1841    4.0985    1.3803 C.ar    1  UNL1        0.0000
     87 C          -0.3442    5.1783    1.6285 C.ar    1  UNL1        0.0000
     88 C          -0.4298    6.2917    0.8019 C.ar    1  UNL1        0.0000
     89 C          -1.3489    6.3587   -0.2350 C.ar    1  UNL1        0.0000
     90 C          -2.1841    5.2637   -0.4717 C.ar    1  UNL1        0.0000
     91 C          -3.8407    2.9862   -1.2126 C.ar    1  UNL1        0.0000
     92 C          -5.2396    2.9837   -1.1883 C.ar    1  UNL1        0.0000
     93 C          -5.9906    3.0762   -2.3613 C.ar    1  UNL1        0.0000
     94 C          -5.3250    3.1776   -3.5725 C.ar    1  UNL1        0.0000
     95 C          -3.9353    3.1984   -3.6401 C.ar    1  UNL1        0.0000
     96 C          -3.2037    3.1069   -2.4604 C.ar    1  UNL1        0.0000
     97 C          -3.9445    2.6547    1.2921 C.ar    1  UNL1        0.0000
     98 C          -4.4654    1.3801    1.5562 C.ar    1  UNL1        0.0000
     99 C          -5.3709    1.1740    2.5914 C.ar    1  UNL1        0.0000
    100 C          -5.7604    2.2621    3.3645 C.ar    1  UNL1        0.0000
    101 C          -5.2744    3.5394    3.1246 C.ar    1  UNL1        0.0000
    102 C          -4.3652    3.7264    2.0823 C.ar    1  UNL1        0.0000
    103 H          -5.3259   -2.8993    1.2731 H       1  UNL1        0.0000
    104 H          -7.2582   -1.4022    0.8385 H       1  UNL1        0.0000
    105 H          -5.1589    0.3792   -2.4416 H       1  UNL1        0.0000
    106 H          -3.2322   -1.1146   -2.0228 H       1  UNL1        0.0000
    107 H          -0.5374   -4.1635   -0.9520 H       1  UNL1        0.0000
    108 H          -0.1954   -5.7736   -2.7952 H       1  UNL1        0.0000
    109 H          -4.3726   -5.6076   -3.7380 H       1  UNL1        0.0000
    110 H          -4.7272   -3.9833   -1.8832 H       1  UNL1        0.0000
    111 H          -2.8837   -5.7612    0.2583 H       1  UNL1        0.0000
    112 H          -3.0443   -7.0596    2.3514 H       1  UNL1        0.0000
    113 H          -3.2966   -3.4233    4.6023 H       1  UNL1        0.0000
    114 H          -3.1390   -2.1094    2.5058 H       1  UNL1        0.0000
    115 H           1.1159   -3.2248    2.0174 H       1  UNL1        0.0000
    116 H          -0.3821   -5.1492    2.4332 H       1  UNL1        0.0000
    117 H           1.4022   -7.2513   -0.8437 H       1  UNL1        0.0000
    118 H           2.9037   -5.3215   -1.2750 H       1  UNL1        0.0000
    119 H           5.7773   -0.1908    2.7944 H       1  UNL1        0.0000
    120 H           5.5975   -4.3648    3.7486 H       1  UNL1        0.0000
    121 H           3.9781   -4.7205    1.8897 H       1  UNL1        0.0000
    122 H           5.7667   -2.8899   -0.2522 H       1  UNL1        0.0000
    123 H           7.0707   -3.0527   -2.3413 H       1  UNL1        0.0000
    124 H           2.1209   -3.1273   -2.5111 H       1  UNL1        0.0000
    125 H           3.2276    1.1104   -2.0217 H       1  UNL1        0.0000
    126 H           5.1525   -0.3840   -2.4444 H       1  UNL1        0.0000
    127 H           7.2626    1.4022    0.8265 H       1  UNL1        0.0000
    128 H           5.3316    2.9000    1.2651 H       1  UNL1        0.0000
    129 H           4.7314    3.9947   -1.8738 H       1  UNL1        0.0000
    130 H           4.3781    5.6251   -3.7235 H       1  UNL1        0.0000
    131 H           0.1972    5.7743   -2.7944 H       1  UNL1        0.0000
    132 H           0.5380    4.1586   -0.9563 H       1  UNL1        0.0000
    133 H           3.1506    2.1002    2.5007 H       1  UNL1        0.0000
    134 H           3.3090    3.4066    4.6019 H       1  UNL1        0.0000
    135 H           3.0386    7.0506    2.3655 H       1  UNL1        0.0000
    136 H           2.8773    5.7596    0.2678 H       1  UNL1        0.0000
    137 H          -1.1211    3.2304    2.0215 H       1  UNL1        0.0000
    138 H           0.3762    5.1558    2.4359 H       1  UNL1        0.0000
    139 H          -2.9020    5.3194   -1.2795 H       1  UNL1        0.0000
    140 H          -5.7667    2.8876   -0.2493 H       1  UNL1        0.0000
    141 H          -7.0733    3.0507   -2.3371 H       1  UNL1        0.0000
    142 H          -3.4456    3.2898   -4.6030 H       1  UNL1        0.0000
    143 H          -2.1237    3.1301   -2.5120 H       1  UNL1        0.0000
    144 H          -4.1693    0.5333    0.9494 H       1  UNL1        0.0000
    145 H          -5.7752    0.1898    2.7958 H       1  UNL1        0.0000
    146 H          -3.9832    4.7214    1.8865 H       1  UNL1        0.0000
    147 H           4.1725   -0.5342    0.9468 H       1  UNL1        0.0000
    148 H          -1.4022    7.2507   -0.8487 H       1  UNL1        0.0000
    149 H          -5.6038    4.3654    3.7444 H       1  UNL1        0.0000
    150 H           3.4403   -3.2871   -4.6036 H       1  UNL1        0.0000
@<TRIPOS>BOND
     1     2    12    1
     2     2     8    1
     3     2    10    1
     4     2    14    1
     5     2     1    1
     6     3    84    1
     7     3    13    1
     8     4    11    1
     9     5    46    1
    10     5     9    1
    11     6     7    1
    12     7     1    1
    13     8     6    1
    14     9     1    1
    15    10     5    1
    16    11     1    1
    17    12     4    1
    18    13     1    1
    19    14     3    1
    20    17    62    1
    21    18    31    1
    22    20    37    1
    23    22    94    1
    24    24    69    1
    25    25    75    1
    26    27     6    1
    27    27    40    1
    28    28    27    1
    29    28    29   ar
    30    29   103    1
    31    30    29   ar
    32    30   104    1
    33    31    30   ar
    34    32    33   ar
    35    32    31   ar
    36    33    28   ar
    37    34    27    1
    38    35    34   ar
    39    35   107    1
    40    36    35   ar
    41    37    38   ar
    42    37    36   ar
    43    38    39   ar
    44    39   110    1
    45    39    34   ar
    46    40    45   ar
    47    41    40   ar
    48    41    42   ar
    49    42    43   ar
    50    43    44   ar
    51    43    19    1
    52    44   113    1
    53    45   114    1
    54    45    44   ar
    55    46    47    1
    56    46    53    1
    57    47    48   ar
    58    48    49   ar
    59    48   115    1
    60    49   116    1
    61    50    16    1
    62    50    49   ar
    63    51    50   ar
    64    52    51   ar
    65    52    47   ar
    66    53    54   ar
    67    53    58   ar
    68    54    55   ar
    69    55   119    1
    70    55    56   ar
    71    56    15    1
    72    57    56   ar
    73    57   120    1
    74    58    57   ar
    75    59    60   ar
    76    59    46    1
    77    60   122    1
    78    61   123    1
    79    61    60   ar
    80    62    61   ar
    81    63    62   ar
    82    63    64   ar
    83    64    59   ar
    84    65     4    1
    85    65    78    1
    86    66    65    1
    87    66    71   ar
    88    67    66   ar
    89    68    67   ar
    90    68    69   ar
    91    69    70   ar
    92    70    71   ar
    93    70   127    1
    94    71   128    1
    95    72    65    1
    96    73   129    1
    97    73    72   ar
    98    74    73   ar
    99    75    74   ar
   100    75    76   ar
   101    76    77   ar
   102    77    72   ar
   103    77   132    1
   104    78    79   ar
   105    79   133    1
   106    79    80   ar
   107    80   134    1
   108    81    80   ar
   109    81    26    1
   110    82    81   ar
   111    83    78   ar
   112    83    82   ar
   113    84    85    1
   114    84    97    1
   115    85    86   ar
   116    86    87   ar
   117    86   137    1
   118    87   138    1
   119    88    23    1
   120    88    87   ar
   121    89    88   ar
   122    90    89   ar
   123    90    85   ar
   124    91    92   ar
   125    91    84    1
   126    92   140    1
   127    93   141    1
   128    93    92   ar
   129    94    93   ar
   130    95    94   ar
   131    95    96   ar
   132    96    91   ar
   133    97    98   ar
   134    97   102   ar
   135    98    99   ar
   136    99   145    1
   137    99   100   ar
   138   100    21    1
   139   101   100   ar
   140   101   149    1
   141   102   101   ar
   142   105    32    1
   143   106    33    1
   144   108    36    1
   145   109    38    1
   146   111    41    1
   147   112    42    1
   148   117    51    1
   149   118    52    1
   150   121    58    1
   151   124    64    1
   152   125    67    1
   153   126    68    1
   154   130    74    1
   155   131    76    1
   156   135    82    1
   157   136    83    1
   158   139    90    1
   159   142    95    1
   160   143    96    1
   161   144    98    1
   162   146   102    1
   163   147    54    1
   164   148    89    1
   165   150    63    1
