@<TRIPOS>MOLECULE
RhRh_ACyPentyl4_16_sp
 126 141 0 0 0
SMALL
GASTEIGER

@<TRIPOS>ATOM
      1 Rh         -0.2082   -0.5247   -1.5050 Rh      1  UNL1        0.0000
      2 Rh          0.7240   -0.2017    0.6734 Rh      1  UNL1        0.0000
      3 C           1.5614   -2.6302   -0.6423 C.3     1  UNL1        0.0000
      4 C           2.2626    0.9510   -1.4867 C.3     1  UNL1        0.0000
      5 C          -0.9956    1.9314   -0.1736 C.3     1  UNL1        0.0000
      6 C          -1.8259   -1.5489    0.6407 C.3     1  UNL1        0.0000
      7 O           0.8881   -2.2661   -1.6523 O.3     1  UNL1        0.0000
      8 O           1.6213   -2.0368    0.4803 O.3     1  UNL1        0.0000
      9 O          -1.7143   -1.6048   -0.6236 O.3     1  UNL1        0.0000
     10 O          -0.9707   -1.0806    1.4512 O.3     1  UNL1        0.0000
     11 O          -0.1988    1.6134    0.7608 O.3     1  UNL1        0.0000
     12 O          -1.2308    1.2478   -1.2200 O.3     1  UNL1        0.0000
     13 O           2.3291    0.6992   -0.2419 O.3     1  UNL1        0.0000
     14 O           1.3566    0.5614   -2.2833 O.3     1  UNL1        0.0000
     15 N           3.6227   -3.6972   -0.0254 N.am    1  UNL1        0.0000
     16 N          -4.1727   -2.0415    0.3102 N.am    1  UNL1        0.0000
     17 N          -3.1096    2.9817    0.4622 N.am    1  UNL1        0.0000
     18 N           3.9721    2.5818   -0.9754 N.am    1  UNL1        0.0000
     19 C           2.3589   -3.9437   -0.7317 C.3     1  UNL1        0.0000
     20 C           2.5613   -4.4005   -2.1925 C.3     1  UNL1        0.0000
     21 C           1.2575   -5.1426   -2.5812 C.3     1  UNL1        0.0000
     22 C           0.4662   -5.3414   -1.2606 C.3     1  UNL1        0.0000
     23 C           1.4829   -5.0764   -0.1407 C.3     1  UNL1        0.0000
     24 C           3.9979   -4.1557    1.2584 C.2     1  UNL1        0.0000
     25 C           5.1539   -3.3054    1.6681 C.ar    1  UNL1        0.0000
     26 C           5.9136   -3.3430    2.8267 C.ar    1  UNL1        0.0000
     27 C           6.9123   -2.3716    2.9699 C.ar    1  UNL1        0.0000
     28 C           7.1248   -1.4006    1.9830 C.ar    1  UNL1        0.0000
     29 C           6.3547   -1.3707    0.8135 C.ar    1  UNL1        0.0000
     30 C           5.3769   -2.3462    0.6810 C.ar    1  UNL1        0.0000
     31 C           4.3834   -2.5686   -0.3970 C.2     1  UNL1        0.0000
     32 C          -3.0658   -2.2019    1.2630 C.3     1  UNL1        0.0000
     33 C          -2.6890   -3.6928    1.5621 C.3     1  UNL1        0.0000
     34 C          -3.2614   -3.9702    2.9563 C.3     1  UNL1        0.0000
     35 C          -3.0399   -2.6405    3.6902 C.3     1  UNL1        0.0000
     36 C          -3.4362   -1.5831    2.6488 C.3     1  UNL1        0.0000
     37 C          -4.3979   -0.7778   -0.2590 C.2     1  UNL1        0.0000
     38 C          -5.5560   -0.9153   -1.1705 C.ar    1  UNL1        0.0000
     39 C          -6.1455    0.0109   -2.0178 C.ar    1  UNL1        0.0000
     40 C          -7.2577   -0.4222   -2.7518 C.ar    1  UNL1        0.0000
     41 C          -7.7453   -1.7292   -2.6270 C.ar    1  UNL1        0.0000
     42 C          -7.1345   -2.6544   -1.7696 C.ar    1  UNL1        0.0000
     43 C          -6.0321   -2.2208   -1.0512 C.ar    1  UNL1        0.0000
     44 C          -5.1674   -2.9587   -0.0777 C.2     1  UNL1        0.0000
     45 C          -1.7367    3.2684   -0.0341 C.3     1  UNL1        0.0000
     46 C          -1.0467    4.2794    0.9070 C.3     1  UNL1        0.0000
     47 C          -1.6907    5.6271    0.5279 C.3     1  UNL1        0.0000
     48 C          -2.0927    5.4906   -0.9701 C.3     1  UNL1        0.0000
     49 C          -1.7183    4.0503   -1.3644 C.3     1  UNL1        0.0000
     50 C          -4.3103    2.9588   -0.2801 C.2     1  UNL1        0.0000
     51 C          -5.3775    2.5198    0.6651 C.ar    1  UNL1        0.0000
     52 C          -6.7368    2.3510    0.4551 C.ar    1  UNL1        0.0000
     53 C          -7.4928    1.8405    1.5179 C.ar    1  UNL1        0.0000
     54 C          -6.8933    1.5165    2.7416 C.ar    1  UNL1        0.0000
     55 C          -5.5193    1.6986    2.9424 C.ar    1  UNL1        0.0000
     56 C          -4.7860    2.2066    1.8822 C.ar    1  UNL1        0.0000
     57 C          -3.3266    2.4579    1.7641 C.2     1  UNL1        0.0000
     58 C           3.4013    1.7862   -2.0815 C.3     1  UNL1        0.0000
     59 C           2.9757    2.7189   -3.2381 C.3     1  UNL1        0.0000
     60 C           4.3029    3.0673   -3.9377 C.3     1  UNL1        0.0000
     61 C           5.2343    1.8454   -3.6947 C.3     1  UNL1        0.0000
     62 C           4.4285    0.8825   -2.8039 C.3     1  UNL1        0.0000
     63 C           5.1592    2.3462   -0.2543 C.2     1  UNL1        0.0000
     64 C           5.0773    3.1988    0.9663 C.ar    1  UNL1        0.0000
     65 C           5.9899    3.3634    1.9960 C.ar    1  UNL1        0.0000
     66 C           5.6263    4.2175    3.0446 C.ar    1  UNL1        0.0000
     67 C           4.3895    4.8753    3.0470 C.ar    1  UNL1        0.0000
     68 C           3.4762    4.7024    1.9998 C.ar    1  UNL1        0.0000
     69 C           3.8496    3.8555    0.9677 C.ar    1  UNL1        0.0000
     70 C           3.1138    3.4445   -0.2529 C.2     1  UNL1        0.0000
     71 H           2.7947   -3.5596   -2.8432 H       1  UNL1        0.0000
     72 H           3.4175   -5.0818   -2.1982 H       1  UNL1        0.0000
     73 H           1.4907   -6.1021   -3.0518 H       1  UNL1        0.0000
     74 H           0.6751   -4.5600   -3.2974 H       1  UNL1        0.0000
     75 H           0.0272   -6.3387   -1.1745 H       1  UNL1        0.0000
     76 H          -0.3539   -4.6194   -1.2019 H       1  UNL1        0.0000
     77 H           2.1179   -5.9481    0.0278 H       1  UNL1        0.0000
     78 H           1.0372   -4.8078    0.8181 H       1  UNL1        0.0000
     79 H           5.7270   -4.0910    3.5895 H       1  UNL1        0.0000
     80 H           7.5268   -2.3638    3.8648 H       1  UNL1        0.0000
     81 H           7.8978   -0.6528    2.1297 H       1  UNL1        0.0000
     82 H           6.4971   -0.6047    0.0598 H       1  UNL1        0.0000
     83 H          -3.0431   -4.3707    0.7894 H       1  UNL1        0.0000
     84 H          -1.5966   -3.7557    1.6016 H       1  UNL1        0.0000
     85 H          -2.7769   -4.8222    3.4417 H       1  UNL1        0.0000
     86 H          -4.3311   -4.1913    2.8710 H       1  UNL1        0.0000
     87 H          -3.6183   -2.5514    4.6143 H       1  UNL1        0.0000
     88 H          -1.9805   -2.5285    3.9470 H       1  UNL1        0.0000
     89 H          -2.9576   -0.6153    2.7977 H       1  UNL1        0.0000
     90 H          -4.5197   -1.4309    2.6609 H       1  UNL1        0.0000
     91 H          -7.5004   -3.6705   -1.6697 H       1  UNL1        0.0000
     92 H           0.0156    4.2730    0.6527 H       1  UNL1        0.0000
     93 H          -1.1450    4.0123    1.9565 H       1  UNL1        0.0000
     94 H          -2.5758    5.8143    1.1445 H       1  UNL1        0.0000
     95 H          -1.0018    6.4584    0.7026 H       1  UNL1        0.0000
     96 H          -3.1664    5.6482   -1.1040 H       1  UNL1        0.0000
     97 H          -1.5794    6.2175   -1.6055 H       1  UNL1        0.0000
     98 H          -2.3537    3.6177   -2.1303 H       1  UNL1        0.0000
     99 H          -0.6800    4.0083   -1.7083 H       1  UNL1        0.0000
    100 H          -7.1884    2.5955   -0.4997 H       1  UNL1        0.0000
    101 H          -8.5599    1.6874    1.3915 H       1  UNL1        0.0000
    102 H          -7.5053    1.1172    3.5443 H       1  UNL1        0.0000
    103 H          -5.0377    1.4468    3.8809 H       1  UNL1        0.0000
    104 H           2.4118    3.5833   -2.8924 H       1  UNL1        0.0000
    105 H           2.3261    2.1351   -3.8940 H       1  UNL1        0.0000
    106 H           4.1484    3.2764   -4.9997 H       1  UNL1        0.0000
    107 H           4.7362    3.9700   -3.4959 H       1  UNL1        0.0000
    108 H           6.1501    2.1474   -3.1805 H       1  UNL1        0.0000
    109 H           5.5312    1.3575   -4.6271 H       1  UNL1        0.0000
    110 H           3.8305    0.1989   -3.4130 H       1  UNL1        0.0000
    111 H           5.0264    0.2790   -2.1310 H       1  UNL1        0.0000
    112 H           2.5123    5.1995    1.9927 H       1  UNL1        0.0000
    113 O           1.9868    3.7531   -0.5900 O.2     1  UNL1        0.0000
    114 O           6.0802    1.6133   -0.5615 O.2     1  UNL1        0.0000
    115 O          -2.4788    2.2491    2.6070 O.2     1  UNL1        0.0000
    116 O          -4.4709    3.2418   -1.4522 O.2     1  UNL1        0.0000
    117 O          -5.3043   -4.1011    0.3127 O.2     1  UNL1        0.0000
    118 O          -3.7468    0.2135    0.0053 O.2     1  UNL1        0.0000
    119 O           4.1936   -1.9180   -1.4073 O.2     1  UNL1        0.0000
    120 O           3.4857   -5.0547    1.8915 O.2     1  UNL1        0.0000
    121 H          -5.7507    1.0177   -2.1082 H       1  UNL1        0.0000
    122 H          -7.7500    0.2656   -3.4320 H       1  UNL1        0.0000
    123 H          -8.6098   -2.0310   -3.2100 H       1  UNL1        0.0000
    124 H           6.9410    2.8423    1.9843 H       1  UNL1        0.0000
    125 H           6.3105    4.3707    3.8731 H       1  UNL1        0.0000
    126 H           4.1356    5.5262    3.8775 H       1  UNL1        0.0000
@<TRIPOS>BOND
     1     1    12    1
     2     1     9    1
     3     1     2    1
     4     2    11    1
     5     2    10    1
     6     3     8    1
     7     4    13    1
     8     5    45    1
     9     5    11    1
    10     6    32    1
    11     6    10    1
    12     7     1    1
    13     7     3    1
    14     8     2    1
    15     9     6    1
    16    12     5    1
    17    13     2    1
    18    14     1    1
    19    14     4    1
    20    15    24   am
    21    16    32    1
    22    17    57   am
    23    18    63   am
    24    18    70   am
    25    19     3    1
    26    19    23    1
    27    19    15    1
    28    20    19    1
    29    21    20    1
    30    21    22    1
    31    22    76    1
    32    22    75    1
    33    22    23    1
    34    23    77    1
    35    23    78    1
    36    24    25    1
    37    24   120    2
    38    25    26   ar
    39    26    27   ar
    40    26    79    1
    41    27    80    1
    42    28    81    1
    43    28    27   ar
    44    29    28   ar
    45    30    29   ar
    46    30    25   ar
    47    31    15   am
    48    31    30    1
    49    32    33    1
    50    32    36    1
    51    33    84    1
    52    33    34    1
    53    34    85    1
    54    34    35    1
    55    35    88    1
    56    35    87    1
    57    36    90    1
    58    36    89    1
    59    36    35    1
    60    37   118    2
    61    37    16   am
    62    38    43   ar
    63    38    37    1
    64    39    38   ar
    65    40    41   ar
    66    40    39   ar
    67    41    42   ar
    68    42    91    1
    69    42    43   ar
    70    43    44    1
    71    44    16   am
    72    44   117    2
    73    45    17    1
    74    45    46    1
    75    46    93    1
    76    47    95    1
    77    47    46    1
    78    47    94    1
    79    48    47    1
    80    49    48    1
    81    49    45    1
    82    50    17   am
    83    50    51    1
    84    51    56   ar
    85    52    51   ar
    86    52    53   ar
    87    53    54   ar
    88    54    55   ar
    89    54   102    1
    90    55   103    1
    91    56    55   ar
    92    57    56    1
    93    57   115    2
    94    58     4    1
    95    58    18    1
    96    59   104    1
    97    59    58    1
    98    60    61    1
    99    60   107    1
   100    60    59    1
   101    61   108    1
   102    61    62    1
   103    62   111    1
   104    62    58    1
   105    63    64    1
   106    64    69   ar
   107    64    65   ar
   108    65    66   ar
   109    66    67   ar
   110    66   125    1
   111    67   126    1
   112    68    67   ar
   113    69    68   ar
   114    70    69    1
   115    71    20    1
   116    72    20    1
   117    73    21    1
   118    74    21    1
   119    82    29    1
   120    83    33    1
   121    86    34    1
   122    92    46    1
   123    96    48    1
   124    97    48    1
   125    98    49    1
   126    99    49    1
   127   100    52    1
   128   101    53    1
   129   105    59    1
   130   106    60    1
   131   109    61    1
   132   110    62    1
   133   112    68    1
   134   113    70    2
   135   114    63    2
   136   116    50    2
   137   119    31    2
   138   121    39    1
   139   122    40    1
   140   123    41    1
   141   124    65    1
