@<TRIPOS>MOLECULE
RhRh_ACB4_21_sp
 114 129 0 0 0
SMALL
GASTEIGER

@<TRIPOS>ATOM
      1 Rh         -0.1350    0.0027    0.4629 Rh      1  UNL1        0.0000
      2 Rh          1.1669   -0.1113   -1.5430 Rh      1  UNL1        0.0000
      3 C          -1.3450    1.2690   -1.8302 C.3     1  UNL1        0.0000
      4 C           2.3503   -1.4262    0.7393 C.3     1  UNL1        0.0000
      5 C           1.6920    2.2028    0.0817 C.3     1  UNL1        0.0000
      6 C          -0.7135   -2.2823   -1.1919 C.3     1  UNL1        0.0000
      7 O          -1.0799   -1.7213   -0.1116 O.3     1  UNL1        0.0000
      8 O           0.1412   -1.8377   -2.0176 O.3     1  UNL1        0.0000
      9 O           1.3139   -1.1179    1.4008 O.3     1  UNL1        0.0000
     10 O           2.5501   -1.2007   -0.4967 O.3     1  UNL1        0.0000
     11 O           0.8577    1.7328    0.9187 O.3     1  UNL1        0.0000
     12 O           2.1146    1.6209   -0.9636 O.3     1  UNL1        0.0000
     13 O          -1.5204    1.0912   -0.5827 O.3     1  UNL1        0.0000
     14 O          -0.2995    0.9844   -2.4887 O.3     1  UNL1        0.0000
     15 N          -1.9470   -4.1657   -0.3057 N.am    1  UNL1        0.0000
     16 N           4.7350   -1.7376    0.8669 N.am    1  UNL1        0.0000
     17 N           1.1380    4.3408    1.0334 N.am    1  UNL1        0.0000
     18 N          -3.7406    1.5548   -1.8740 N.am    1  UNL1        0.0000
     19 C          -1.3694   -3.6160   -1.5318 C.3     1  UNL1        0.0000
     20 C          -0.4935   -4.6637   -2.2840 C.3     1  UNL1        0.0000
     21 C          -1.6815   -4.9488   -3.2327 C.3     1  UNL1        0.0000
     22 C          -2.3133   -3.6136   -2.7786 C.3     1  UNL1        0.0000
     23 C          -3.2748   -4.0525    0.1463 C.2     1  UNL1        0.0000
     24 C          -3.2462   -4.4059    1.5954 C.ar    1  UNL1        0.0000
     25 C          -4.2837   -4.4864    2.5107 C.ar    1  UNL1        0.0000
     26 C          -3.9516   -4.8163    3.8305 C.ar    1  UNL1        0.0000
     27 C          -2.6229   -5.0549    4.2048 C.ar    1  UNL1        0.0000
     28 C          -1.5827   -4.9726    3.2709 C.ar    1  UNL1        0.0000
     29 C          -1.9252   -4.6456    1.9680 C.ar    1  UNL1        0.0000
     30 C          -1.0723   -4.4502    0.7689 C.2     1  UNL1        0.0000
     31 C           3.4790   -2.1510    1.4729 C.3     1  UNL1        0.0000
     32 C           3.1915   -3.6810    1.6069 C.3     1  UNL1        0.0000
     33 C           2.6280   -3.4075    3.0222 C.3     1  UNL1        0.0000
     34 C           3.3679   -2.0458    3.0166 C.3     1  UNL1        0.0000
     35 C           5.4435   -2.4308   -0.1384 C.2     1  UNL1        0.0000
     36 C           6.4420   -1.4535   -0.6664 C.ar    1  UNL1        0.0000
     37 C           7.4263   -1.6193   -1.6277 C.ar    1  UNL1        0.0000
     38 C           8.2081   -0.5020   -1.9470 C.ar    1  UNL1        0.0000
     39 C           7.9988    0.7319   -1.3182 C.ar    1  UNL1        0.0000
     40 C           7.0010    0.8887   -0.3485 C.ar    1  UNL1        0.0000
     41 C           6.2348   -0.2246   -0.0393 C.ar    1  UNL1        0.0000
     42 C           5.0981   -0.3806    0.9051 C.2     1  UNL1        0.0000
     43 C           2.2213    3.6023    0.3824 C.3     1  UNL1        0.0000
     44 C           2.8501    4.3935   -0.7982 C.3     1  UNL1        0.0000
     45 C           4.0233    4.8034    0.1245 C.3     1  UNL1        0.0000
     46 C           3.6126    3.6698    1.0937 C.3     1  UNL1        0.0000
     47 C          -0.0862    4.4351    0.3345 C.2     1  UNL1        0.0000
     48 C          -1.1054    4.8774    1.3157 C.ar    1  UNL1        0.0000
     49 C          -2.4605    5.1226    1.1524 C.ar    1  UNL1        0.0000
     50 C          -3.1809    5.4918    2.2952 C.ar    1  UNL1        0.0000
     51 C          -2.5555    5.6070    3.5431 C.ar    1  UNL1        0.0000
     52 C          -1.1877    5.3453    3.6944 C.ar    1  UNL1        0.0000
     53 C          -0.4830    4.9770    2.5595 C.ar    1  UNL1        0.0000
     54 C           0.9486    4.5811    2.4134 C.2     1  UNL1        0.0000
     55 C          -2.5144    1.8680   -2.6064 C.3     1  UNL1        0.0000
     56 C          -2.6282    1.4857   -4.1125 C.3     1  UNL1        0.0000
     57 C          -2.9390    2.9642   -4.4449 C.3     1  UNL1        0.0000
     58 C          -2.3594    3.3540   -3.0662 C.3     1  UNL1        0.0000
     59 C          -4.0347    0.1864   -1.6506 C.2     1  UNL1        0.0000
     60 C          -5.1141    0.1475   -0.6331 C.ar    1  UNL1        0.0000
     61 C          -5.7818   -0.9310   -0.0711 C.ar    1  UNL1        0.0000
     62 C          -6.7454   -0.6407    0.9034 C.ar    1  UNL1        0.0000
     63 C          -7.0169    0.6776    1.2908 C.ar    1  UNL1        0.0000
     64 C          -6.3292    1.7551    0.7186 C.ar    1  UNL1        0.0000
     65 C          -5.3779    1.4607   -0.2450 C.ar    1  UNL1        0.0000
     66 C          -4.4679    2.3749   -0.9939 C.2     1  UNL1        0.0000
     67 H           0.3300   -4.1542   -2.7852 H       1  UNL1        0.0000
     68 H          -0.1001   -5.4751   -1.6726 H       1  UNL1        0.0000
     69 H          -2.2706   -5.8101   -2.9050 H       1  UNL1        0.0000
     70 H          -1.4572   -5.0601   -4.2959 H       1  UNL1        0.0000
     71 H          -3.3778   -3.5603   -2.5762 H       1  UNL1        0.0000
     72 H          -2.0255   -2.7807   -3.4212 H       1  UNL1        0.0000
     73 H          -2.3983   -5.3045    5.2368 H       1  UNL1        0.0000
     74 H          -0.5489   -5.1492    3.5473 H       1  UNL1        0.0000
     75 H           2.5312   -4.1220    0.8621 H       1  UNL1        0.0000
     76 H           4.1317   -4.2307    1.6293 H       1  UNL1        0.0000
     77 H           1.5442   -3.2797    3.0016 H       1  UNL1        0.0000
     78 H           2.8970   -4.1190    3.8065 H       1  UNL1        0.0000
     79 H           4.3649   -2.1181    3.4575 H       1  UNL1        0.0000
     80 H           2.8541   -1.1666    3.4020 H       1  UNL1        0.0000
     81 H           8.9876   -0.5901   -2.6972 H       1  UNL1        0.0000
     82 H           8.6193    1.5795   -1.5911 H       1  UNL1        0.0000
     83 H           6.8260    1.8400    0.1426 H       1  UNL1        0.0000
     84 H           3.1529    3.7006   -1.5837 H       1  UNL1        0.0000
     85 H           2.2219    5.1743   -1.2268 H       1  UNL1        0.0000
     86 H           5.0297    4.7582   -0.2995 H       1  UNL1        0.0000
     87 H           3.8739    5.7915    0.5683 H       1  UNL1        0.0000
     88 H           3.5929    3.8713    2.1604 H       1  UNL1        0.0000
     89 H           4.1508    2.7383    0.9113 H       1  UNL1        0.0000
     90 H          -2.9456    5.0002    0.1919 H       1  UNL1        0.0000
     91 H          -4.2458    5.6839    2.2118 H       1  UNL1        0.0000
     92 H          -3.1443    5.8936    4.4090 H       1  UNL1        0.0000
     93 H          -0.6933    5.4134    4.6574 H       1  UNL1        0.0000
     94 H          -1.6524    1.1696   -4.4817 H       1  UNL1        0.0000
     95 H          -3.3714    0.7247   -4.3494 H       1  UNL1        0.0000
     96 H          -2.4577    3.3905   -5.3280 H       1  UNL1        0.0000
     97 H          -4.0143    3.1548   -4.5026 H       1  UNL1        0.0000
     98 H          -2.8711    4.1003   -2.4675 H       1  UNL1        0.0000
     99 H          -1.2966    3.5917   -3.1112 H       1  UNL1        0.0000
    100 H          -5.5470   -1.9486   -0.3629 H       1  UNL1        0.0000
    101 H          -6.5206    2.7806    1.0154 H       1  UNL1        0.0000
    102 O           4.5348    0.4651    1.5751 O.2     1  UNL1        0.0000
    103 O           5.2668   -3.5783   -0.4876 O.2     1  UNL1        0.0000
    104 O          -0.2225    4.1558   -0.8420 O.2     1  UNL1        0.0000
    105 O           1.7759    4.4909    3.2967 O.2     1  UNL1        0.0000
    106 O          -4.3874    3.5829   -0.8699 O.2     1  UNL1        0.0000
    107 O          -3.4585   -0.7326   -2.1973 O.2     1  UNL1        0.0000
    108 O           0.1386   -4.4909    0.6849 O.2     1  UNL1        0.0000
    109 O          -4.2526   -3.7474   -0.5091 O.2     1  UNL1        0.0000
    110 H          -5.3075   -4.2940    2.2088 H       1  UNL1        0.0000
    111 H          -4.7343   -4.8853    4.5792 H       1  UNL1        0.0000
    112 H           7.5731   -2.5784   -2.1123 H       1  UNL1        0.0000
    113 H          -7.2914   -1.4539    1.3718 H       1  UNL1        0.0000
    114 H          -7.7686    0.8648    2.0512 H       1  UNL1        0.0000
@<TRIPOS>BOND
     1     1    11    1
     2     1     9    1
     3     2    12    1
     4     2    10    1
     5     2     1    1
     6     3    13    1
     7     4     9    1
     8     4    31    1
     9     5    43    1
    10     5    11    1
    11     6     7    1
    12     7     1    1
    13     8     2    1
    14     8     6    1
    15    10     4    1
    16    12     5    1
    17    13     1    1
    18    14     3    1
    19    14     2    1
    20    15    23   am
    21    15    30   am
    22    16    42   am
    23    16    31    1
    24    17    54   am
    25    18    59   am
    26    18    66   am
    27    19     6    1
    28    19    15    1
    29    20    68    1
    30    20    19    1
    31    21    69    1
    32    21    22    1
    33    21    20    1
    34    22    71    1
    35    22    19    1
    36    23    24    1
    37    24    29   ar
    38    24    25   ar
    39    25    26   ar
    40    26    27   ar
    41    26   111    1
    42    27    73    1
    43    28    74    1
    44    28    27   ar
    45    29    28   ar
    46    30    29    1
    47    31    32    1
    48    31    34    1
    49    32    76    1
    50    32    33    1
    51    33    78    1
    52    34    33    1
    53    34    80    1
    54    34    79    1
    55    35    16   am
    56    36    35    1
    57    36    41   ar
    58    37    36   ar
    59    38    37   ar
    60    38    39   ar
    61    39    40   ar
    62    40    41   ar
    63    40    83    1
    64    41    42    1
    65    42   102    2
    66    43    17    1
    67    43    46    1
    68    44    45    1
    69    44    43    1
    70    45    87    1
    71    45    46    1
    72    46    88    1
    73    47    17   am
    74    47    48    1
    75    48    53   ar
    76    49    48   ar
    77    49    50   ar
    78    50    51   ar
    79    51    52   ar
    80    51    92    1
    81    52    93    1
    82    53    52   ar
    83    54    53    1
    84    54   105    2
    85    55    18    1
    86    55     3    1
    87    56    55    1
    88    57    56    1
    89    57    58    1
    90    58    55    1
    91    58    98    1
    92    59    60    1
    93    60    65   ar
    94    60    61   ar
    95    61    62   ar
    96    62    63   ar
    97    62   113    1
    98    63   114    1
    99    64   101    1
   100    64    63   ar
   101    65    64   ar
   102    66   106    2
   103    66    65    1
   104    67    20    1
   105    70    21    1
   106    72    22    1
   107    75    32    1
   108    77    33    1
   109    81    38    1
   110    82    39    1
   111    84    44    1
   112    85    44    1
   113    86    45    1
   114    89    46    1
   115    90    49    1
   116    91    50    1
   117    94    56    1
   118    95    56    1
   119    96    57    1
   120    97    57    1
   121    99    58    1
   122   100    61    1
   123   103    35    2
   124   104    47    2
   125   107    59    2
   126   108    30    2
   127   109    23    2
   128   110    25    1
   129   112    37    1
