@<TRIPOS>MOLECULE
RhRh_PhO2C4_C4_sp
 58 65 0 0 0
SMALL
GASTEIGER

@<TRIPOS>ATOM
      1 Rh         -0.0001    0.0000   -1.1933 Rh      1  UNL1        0.0000
      2 Rh         -0.0000   -0.0000    1.1933 Rh      1  UNL1        0.0000
      3 C          -1.8628    1.8680   -0.0000 C.3     1  UNL1        0.0000
      4 C          -1.8681   -1.8627    0.0000 C.3     1  UNL1        0.0000
      5 C           1.8680    1.8627   -0.0000 C.3     1  UNL1        0.0000
      6 C           1.8627   -1.8680    0.0000 C.3     1  UNL1        0.0000
      7 O           1.4532    1.4491   -1.1337 O.3     1  UNL1        0.0000
      8 O           1.4532    1.4491    1.1337 O.3     1  UNL1        0.0000
      9 O          -1.4533   -1.4492    1.1337 O.3     1  UNL1        0.0000
     10 O          -1.4534   -1.4491   -1.1337 O.3     1  UNL1        0.0000
     11 O          -1.4492    1.4532   -1.1337 O.3     1  UNL1        0.0000
     12 O          -1.4492    1.4533    1.1337 O.3     1  UNL1        0.0000
     13 O           1.4491   -1.4532    1.1337 O.3     1  UNL1        0.0000
     14 O           1.4491   -1.4533   -1.1337 O.3     1  UNL1        0.0000
     15 C           2.9212    2.9127   -0.0000 C.ar    1  UNL1        0.0000
     16 C           3.4170    3.4069    1.2131 C.ar    1  UNL1        0.0000
     17 C           4.4028    4.3897    1.2102 C.ar    1  UNL1        0.0000
     18 C           4.8962    4.8818   -0.0000 C.ar    1  UNL1        0.0000
     19 C           4.4027    4.3898   -1.2103 C.ar    1  UNL1        0.0000
     20 C           3.4169    3.4070   -1.2131 C.ar    1  UNL1        0.0000
     21 C          -2.9211   -2.9128    0.0000 C.ar    1  UNL1        0.0000
     22 C          -3.4169   -3.4071   -1.2131 C.ar    1  UNL1        0.0000
     23 C          -4.4026   -4.3900   -1.2102 C.ar    1  UNL1        0.0000
     24 C          -4.8960   -4.8821    0.0000 C.ar    1  UNL1        0.0000
     25 C          -4.4025   -4.3901    1.2103 C.ar    1  UNL1        0.0000
     26 C          -3.4168   -3.4072    1.2131 C.ar    1  UNL1        0.0000
     27 C          -2.9129    2.9211    0.0000 C.ar    1  UNL1        0.0000
     28 C          -3.4073    3.4168   -1.2131 C.ar    1  UNL1        0.0000
     29 C          -4.3902    4.4024   -1.2102 C.ar    1  UNL1        0.0000
     30 C          -4.8822    4.8959    0.0001 C.ar    1  UNL1        0.0000
     31 C          -4.3902    4.4024    1.2103 C.ar    1  UNL1        0.0000
     32 C          -3.4072    3.4167    1.2131 C.ar    1  UNL1        0.0000
     33 C           2.9129   -2.9209   -0.0000 C.ar    1  UNL1        0.0000
     34 C           3.4074   -3.4165    1.2131 C.ar    1  UNL1        0.0000
     35 C           4.3904   -4.4021    1.2102 C.ar    1  UNL1        0.0000
     36 C           4.8825   -4.8956   -0.0001 C.ar    1  UNL1        0.0000
     37 C           4.3902   -4.4022   -1.2103 C.ar    1  UNL1        0.0000
     38 C           3.4072   -3.4166   -1.2131 C.ar    1  UNL1        0.0000
     39 H           4.7869    4.7726    2.1505 H       1  UNL1        0.0000
     40 H           5.6652    5.6485   -0.0000 H       1  UNL1        0.0000
     41 H           4.7868    4.7728   -2.1505 H       1  UNL1        0.0000
     42 H           3.0211    3.0124   -2.1414 H       1  UNL1        0.0000
     43 H          -3.0212   -3.0124   -2.1413 H       1  UNL1        0.0000
     44 H          -4.7867   -4.7729   -2.1505 H       1  UNL1        0.0000
     45 H          -5.6649   -5.6489    0.0000 H       1  UNL1        0.0000
     46 H          -4.7865   -4.7731    2.1505 H       1  UNL1        0.0000
     47 H          -3.0210   -3.0126    2.1414 H       1  UNL1        0.0000
     48 H          -3.0126    3.0210   -2.1413 H       1  UNL1        0.0000
     49 H          -4.7732    4.7865   -2.1504 H       1  UNL1        0.0000
     50 H          -5.6490    5.6648    0.0001 H       1  UNL1        0.0000
     51 H          -4.7731    4.7865    2.1505 H       1  UNL1        0.0000
     52 H          -3.0125    3.0210    2.1414 H       1  UNL1        0.0000
     53 H           4.7732   -4.7863   -2.1505 H       1  UNL1        0.0000
     54 H           3.0125   -3.0210   -2.1414 H       1  UNL1        0.0000
     55 H           3.0212    3.0123    2.1413 H       1  UNL1        0.0000
     56 H           3.0128   -3.0208    2.1413 H       1  UNL1        0.0000
     57 H           5.6493   -5.6644   -0.0001 H       1  UNL1        0.0000
     58 H           4.7735   -4.7861    2.1504 H       1  UNL1        0.0000
@<TRIPOS>BOND
     1     1    11    1
     2     1     7    1
     3     1    10    1
     4     1    14    1
     5     1     2    1
     6     3    27    1
     7     3    12    1
     8     4    21    1
     9     4     9    1
    10     5     8    1
    11     6    13    1
    12     7     5    1
    13     8     2    1
    14     9     2    1
    15    10     4    1
    16    11     3    1
    17    12     2    1
    18    13     2    1
    19    14     6    1
    20    15     5    1
    21    15    16   ar
    22    16    55    1
    23    17    16   ar
    24    17    39    1
    25    18    40    1
    26    18    17   ar
    27    19    18   ar
    28    20    19   ar
    29    20    15   ar
    30    21    26   ar
    31    22    23   ar
    32    22    21   ar
    33    23    24   ar
    34    24    25   ar
    35    25    26   ar
    36    25    46    1
    37    26    47    1
    38    27    32   ar
    39    28    29   ar
    40    28    27   ar
    41    29    30   ar
    42    30    50    1
    43    30    31   ar
    44    31    32   ar
    45    31    51    1
    46    32    52    1
    47    33     6    1
    48    33    34   ar
    49    34    56    1
    50    35    34   ar
    51    35    58    1
    52    36    35   ar
    53    37    36   ar
    54    38    37   ar
    55    38    33   ar
    56    41    19    1
    57    42    20    1
    58    43    22    1
    59    44    23    1
    60    45    24    1
    61    48    28    1
    62    49    29    1
    63    53    37    1
    64    54    38    1
    65    57    36    1
