@<TRIPOS>MOLECULE
RhRh_tBu-O2C4_D2_sp
 66 69 0 0 0
SMALL
GASTEIGER

@<TRIPOS>ATOM
      1 Rh          0.0017   -0.0180   -1.1935 Rh      1  UNL1        0.0000
      2 Rh         -0.0018   -0.0180    1.1936 Rh      1  UNL1        0.0000
      3 C           1.8839    1.8311    0.0076 C.3     1  UNL1        0.0000
      4 C           1.8940   -1.8557   -0.0007 C.3     1  UNL1        0.0000
      5 C          -1.8946   -1.8552    0.0008 C.3     1  UNL1        0.0000
      6 C          -1.8834    1.8317   -0.0076 C.3     1  UNL1        0.0000
      7 O           1.4547   -1.4708   -1.1310 O.3     1  UNL1        0.0000
      8 O           1.4699   -1.4522    1.1310 O.3     1  UNL1        0.0000
      9 O          -1.4706   -1.4515   -1.1309 O.3     1  UNL1        0.0000
     10 O           1.4708    1.4195   -1.1256 O.3     1  UNL1        0.0000
     11 O          -1.4491    1.4380   -1.1364 O.3     1  UNL1        0.0000
     12 O          -1.4553   -1.4702    1.1310 O.3     1  UNL1        0.0000
     13 O          -1.4702    1.4202    1.1256 O.3     1  UNL1        0.0000
     14 O           1.4496    1.4375    1.1364 O.3     1  UNL1        0.0000
     15 C           3.0657   -2.8403    0.0159 C.3     1  UNL1        0.0000
     16 C          -3.0660   -2.8401   -0.0158 C.3     1  UNL1        0.0000
     17 C           3.0147    2.8625   -0.0127 C.3     1  UNL1        0.0000
     18 C          -3.0143    2.8630    0.0127 C.3     1  UNL1        0.0000
     19 C           3.3089    3.3795    1.4010 C.3     1  UNL1        0.0000
     20 C           4.2594    2.1552   -0.5910 C.3     1  UNL1        0.0000
     21 C           2.5980    4.0252   -0.9337 C.3     1  UNL1        0.0000
     22 C           2.8167   -3.9102    1.0933 C.3     1  UNL1        0.0000
     23 C           3.2457   -3.4957   -1.3597 C.3     1  UNL1        0.0000
     24 C           4.3195   -2.0118    0.3770 C.3     1  UNL1        0.0000
     25 C          -3.2466   -3.4947    1.3600 C.3     1  UNL1        0.0000
     26 C          -2.8162   -3.9105   -1.0925 C.3     1  UNL1        0.0000
     27 C          -4.3199   -2.0121   -0.3781 C.3     1  UNL1        0.0000
     28 C          -4.2589    2.1556    0.5911 C.3     1  UNL1        0.0000
     29 C          -3.3085    3.3799   -1.4010 C.3     1  UNL1        0.0000
     30 C          -2.5976    4.0258    0.9336 C.3     1  UNL1        0.0000
     31 H           3.6056    2.5663    2.0670 H       1  UNL1        0.0000
     32 H           4.1222    4.1110    1.3602 H       1  UNL1        0.0000
     33 H           2.4308    3.8637    1.8361 H       1  UNL1        0.0000
     34 H           4.0586    1.7741   -1.5950 H       1  UNL1        0.0000
     35 H           5.0948    2.8605   -0.6435 H       1  UNL1        0.0000
     36 H           4.5629    1.3168    0.0442 H       1  UNL1        0.0000
     37 H           2.3771    3.6659   -1.9405 H       1  UNL1        0.0000
     38 H           1.7079    4.5321   -0.5466 H       1  UNL1        0.0000
     39 H           3.4073    4.7599   -0.9906 H       1  UNL1        0.0000
     40 H           3.6705   -4.5936    1.1385 H       1  UNL1        0.0000
     41 H           2.6788   -3.4535    2.0748 H       1  UNL1        0.0000
     42 H           1.9235   -4.4995    0.8620 H       1  UNL1        0.0000
     43 H           2.3551   -4.0614   -1.6474 H       1  UNL1        0.0000
     44 H           3.4317   -2.7486   -2.1338 H       1  UNL1        0.0000
     45 H           4.0951   -4.1853   -1.3275 H       1  UNL1        0.0000
     46 H           4.2009   -1.5328    1.3523 H       1  UNL1        0.0000
     47 H           5.1970   -2.6650    0.4128 H       1  UNL1        0.0000
     48 H           4.5029   -1.2353   -0.3725 H       1  UNL1        0.0000
     49 H          -3.4332   -2.7473    2.1335 H       1  UNL1        0.0000
     50 H          -4.0958   -4.1847    1.3277 H       1  UNL1        0.0000
     51 H          -2.3560   -4.0600    1.6484 H       1  UNL1        0.0000
     52 H          -3.6698   -4.5941   -1.1379 H       1  UNL1        0.0000
     53 H          -2.6778   -3.4543   -2.0742 H       1  UNL1        0.0000
     54 H          -1.9230   -4.4994   -0.8604 H       1  UNL1        0.0000
     55 H          -5.1972   -2.6656   -0.4140 H       1  UNL1        0.0000
     56 H          -4.5039   -1.2352    0.3708 H       1  UNL1        0.0000
     57 H          -4.2009   -1.5337   -1.3537 H       1  UNL1        0.0000
     58 H          -4.0580    1.7746    1.5950 H       1  UNL1        0.0000
     59 H          -5.0944    2.8608    0.6435 H       1  UNL1        0.0000
     60 H          -4.5623    1.3171   -0.0442 H       1  UNL1        0.0000
     61 H          -4.1219    4.1113   -1.3603 H       1  UNL1        0.0000
     62 H          -2.4305    3.8641   -1.8362 H       1  UNL1        0.0000
     63 H          -3.6053    2.5666   -2.0669 H       1  UNL1        0.0000
     64 H          -1.7075    4.5327    0.5465 H       1  UNL1        0.0000
     65 H          -3.4070    4.7604    0.9905 H       1  UNL1        0.0000
     66 H          -2.3766    3.6665    1.9404 H       1  UNL1        0.0000
@<TRIPOS>BOND
     1     1    11    1
     2     1     7    1
     3     1     9    1
     4     1    10    1
     5     1     2    1
     6     3    14    1
     7     4    15    1
     8     4     8    1
     9     5    12    1
    10     6    18    1
    11     6    13    1
    12     7     4    1
    13     8     2    1
    14     9     5    1
    15    10     3    1
    16    11     6    1
    17    12     2    1
    18    13     2    1
    19    14     2    1
    20    15    24    1
    21    15    22    1
    22    16     5    1
    23    16    25    1
    24    17     3    1
    25    17    19    1
    26    18    28    1
    27    18    30    1
    28    19    33    1
    29    19    31    1
    30    20    17    1
    31    20    36    1
    32    21    38    1
    33    21    17    1
    34    22    40    1
    35    22    41    1
    36    23    45    1
    37    23    15    1
    38    24    47    1
    39    24    46    1
    40    25    51    1
    41    25    49    1
    42    26    54    1
    43    26    16    1
    44    27    16    1
    45    27    56    1
    46    28    59    1
    47    28    58    1
    48    29    61    1
    49    29    18    1
    50    30    65    1
    51    30    66    1
    52    32    19    1
    53    34    20    1
    54    35    20    1
    55    37    21    1
    56    39    21    1
    57    42    22    1
    58    43    23    1
    59    44    23    1
    60    48    24    1
    61    50    25    1
    62    52    26    1
    63    53    26    1
    64    55    27    1
    65    57    27    1
    66    60    28    1
    67    62    29    1
    68    63    29    1
    69    64    30    1
