@<TRIPOS>MOLECULE
RhRh_OAc4_3-1_cont_sp
 30 33 0 0 0
SMALL
GASTEIGER

@<TRIPOS>ATOM
      1 Rh          0.0000   -0.0001   -1.1946 Rh      1  UNL1        0.0000
      2 Rh          0.0003    0.0001    1.1948 Rh      1  UNL1        0.0000
      3 C          -1.8154    1.9104    0.0003 C.3     1  UNL1        0.0000
      4 C           1.9105    1.8155   -0.0005 C.3     1  UNL1        0.0000
      5 C          -1.9106   -1.8152    0.0005 C.3     1  UNL1        0.0000
      6 C           1.8155   -1.9105    0.0004 C.3     1  UNL1        0.0000
      7 O           1.4953    1.4124   -1.1343 O.3     1  UNL1        0.0000
      8 O           1.4954    1.4126    1.1334 O.3     1  UNL1        0.0000
      9 O           1.4124   -1.4955   -1.1335 O.3     1  UNL1        0.0000
     10 O          -1.4123    1.4953   -1.1336 O.3     1  UNL1        0.0000
     11 O          -1.4953   -1.4125   -1.1334 O.3     1  UNL1        0.0000
     12 O           1.4127   -1.4951    1.1342 O.3     1  UNL1        0.0000
     13 O          -1.4950   -1.4125    1.1343 O.3     1  UNL1        0.0000
     14 O          -1.4123    1.4953    1.1341 O.3     1  UNL1        0.0000
     15 C           2.9672    2.8911    0.0004 C.3     1  UNL1        0.0000
     16 C           2.8905   -2.9678   -0.0010 C.3     1  UNL1        0.0000
     17 C          -2.8913    2.9667   -0.0010 C.3     1  UNL1        0.0000
     18 C          -2.9683   -2.8897    0.0005 C.3     1  UNL1        0.0000
     19 H           2.4721    3.8672    0.0362 H       1  UNL1        0.0000
     20 H           3.5612    2.8386   -0.9125 H       1  UNL1        0.0000
     21 H           3.6001    2.7964    0.8836 H       1  UNL1        0.0000
     22 H           2.7862   -3.6091   -0.8771 H       1  UNL1        0.0000
     23 H           2.8473   -3.5530    0.9179 H       1  UNL1        0.0000
     24 H           3.8664   -2.4738   -0.0530 H       1  UNL1        0.0000
     25 H          -2.8434    3.5570    0.9144 H       1  UNL1        0.0000
     26 H          -2.7932    3.6029   -0.8815 H       1  UNL1        0.0000
     27 H          -3.8670    2.4711   -0.0437 H       1  UNL1        0.0000
     28 H          -3.5838   -2.8132   -0.8965 H       1  UNL1        0.0000
     29 H          -2.4739   -3.8668   -0.0032 H       1  UNL1        0.0000
     30 H          -3.5800   -2.8175    0.9004 H       1  UNL1        0.0000
@<TRIPOS>BOND
     1     1     7    1
     2     1    10    1
     3     1     9    1
     4     1    11    1
     5     1     2    1
     6     3    14    1
     7     4    15    1
     8     4     8    1
     9     5    13    1
    10     6    12    1
    11     7     4    1
    12     8     2    1
    13     9     6    1
    14    10     3    1
    15    11     5    1
    16    12     2    1
    17    13     2    1
    18    14     2    1
    19    15    19    1
    20    15    21    1
    21    16     6    1
    22    16    23    1
    23    17     3    1
    24    17    25    1
    25    18     5    1
    26    18    30    1
    27    20    15    1
    28    22    16    1
    29    24    16    1
    30    26    17    1
    31    27    17    1
    32    28    18    1
    33    29    18    1
