@<TRIPOS>MOLECULE
RhRh_S-pPhTPCP_31-10_13_sp
 206 229 0 0 0
SMALL
GASTEIGER

@<TRIPOS>ATOM
      1 Rh          0.0343    0.0641    0.2421 Rh      1  UNL1        0.0000
      2 Rh         -0.0118   -0.0322   -2.1456 Rh      1  UNL1        0.0000
      3 C          -1.6410   -2.0419   -0.8297 C.3     1  UNL1        0.0000
      4 C           2.1582   -1.5142   -0.9337 C.3     1  UNL1        0.0000
      5 C           1.6888    2.0482   -1.0443 C.3     1  UNL1        0.0000
      6 C          -2.1362    1.5410   -0.9913 C.3     1  UNL1        0.0000
      7 O          -1.5983    1.3070    0.1426 O.3     1  UNL1        0.0000
      8 O          -1.6182    1.2461   -2.1152 O.3     1  UNL1        0.0000
      9 O          -1.3109   -1.4970    0.2754 O.3     1  UNL1        0.0000
     10 O          -1.2431   -1.6784   -1.9781 O.3     1  UNL1        0.0000
     11 O           1.6895   -1.1665    0.2001 O.3     1  UNL1        0.0000
     12 O           1.5796   -1.3163   -2.0507 O.3     1  UNL1        0.0000
     13 O           1.3632    1.6130    0.1096 O.3     1  UNL1        0.0000
     14 O           1.2462    1.6122   -2.1503 O.3     1  UNL1        0.0000
     15 C          -4.8575    3.5193    0.6843 C.ar    1  UNL1        0.0000
     16 C          -3.4803    2.2036   -0.9961 C.3     1  UNL1        0.0000
     17 C          -4.4436    1.9044   -2.2118 C.3     1  UNL1        0.0000
     18 C          -4.9074    1.3524    2.4049 C.ar    1  UNL1        0.0000
     19 C          -4.1418    2.3694    0.3390 C.ar    1  UNL1        0.0000
     20 C          -5.6243    3.5708    1.8457 C.ar    1  UNL1        0.0000
     21 C          -5.9161    1.9031   -1.8771 C.ar    1  UNL1        0.0000
     22 C          -4.0770    0.9205   -3.2884 C.ar    1  UNL1        0.0000
     23 C          -3.8444    1.3657   -4.5925 C.ar    1  UNL1        0.0000
     24 C          -3.7115    3.1972   -2.1238 C.3     1  UNL1        0.0000
     25 C          -6.4724    0.8952   -1.0793 C.ar    1  UNL1        0.0000
     26 C          -4.1698    1.2889    1.2335 C.ar    1  UNL1        0.0000
     27 C          -6.7518    2.9061   -2.3746 C.ar    1  UNL1        0.0000
     28 C          -5.6847    2.4781    2.7198 C.ar    1  UNL1        0.0000
     29 C          -8.6530    1.9200   -1.2553 C.ar    1  UNL1        0.0000
     30 C          -3.5481    0.4592   -5.6097 C.ar    1  UNL1        0.0000
     31 C          -3.7256   -1.3572   -4.0339 C.ar    1  UNL1        0.0000
     32 C          -4.0252   -0.4490   -3.0231 C.ar    1  UNL1        0.0000
     33 C          -8.1136    2.9154   -2.0689 C.ar    1  UNL1        0.0000
     34 C          -7.8280    0.9068   -0.7619 C.ar    1  UNL1        0.0000
     35 C          -3.4845   -0.9072   -5.3326 C.ar    1  UNL1        0.0000
     36 C          -3.9938   -2.4855    1.2485 C.ar    1  UNL1        0.0000
     37 C          -2.6171   -3.1919   -0.7553 C.3     1  UNL1        0.0000
     38 C          -2.0561   -4.6192   -0.5284 C.3     1  UNL1        0.0000
     39 C          -6.3365   -2.5375   -0.2434 C.ar    1  UNL1        0.0000
     40 C          -3.9286   -2.8363   -0.1072 C.ar    1  UNL1        0.0000
     41 C          -5.2102   -2.1723    1.8452 C.ar    1  UNL1        0.0000
     42 C          -2.8898   -5.5252    0.3446 C.ar    1  UNL1        0.0000
     43 C          -0.5762   -4.8655   -0.3885 C.ar    1  UNL1        0.0000
     44 C           0.0003   -5.8881   -1.1534 C.ar    1  UNL1        0.0000
     45 C          -2.5849   -4.1958   -1.8745 C.3     1  UNL1        0.0000
     46 C          -3.8978   -6.3401   -0.1768 C.ar    1  UNL1        0.0000
     47 C          -5.1207   -2.8644   -0.8371 C.ar    1  UNL1        0.0000
     48 C          -2.6581   -5.5509    1.7266 C.ar    1  UNL1        0.0000
     49 C          -6.4083   -2.1828    1.1111 C.ar    1  UNL1        0.0000
     50 C          -4.4400   -7.1541    2.0344 C.ar    1  UNL1        0.0000
     51 C           1.3275   -6.2611   -0.9571 C.ar    1  UNL1        0.0000
     52 C           1.5454   -4.5687    0.7509 C.ar    1  UNL1        0.0000
     53 C           0.2126   -4.2029    0.5587 C.ar    1  UNL1        0.0000
     54 C          -3.4271   -6.3525    2.5647 C.ar    1  UNL1        0.0000
     55 C          -4.6683   -7.1486    0.6602 C.ar    1  UNL1        0.0000
     56 C           2.0991   -5.6084    0.0062 C.ar    1  UNL1        0.0000
     57 C           4.4249   -1.0578    1.0446 C.ar    1  UNL1        0.0000
     58 C           3.4811   -2.2207   -0.9665 C.3     1  UNL1        0.0000
     59 C           4.3195   -2.1416   -2.2940 C.3     1  UNL1        0.0000
     60 C           5.7634   -3.3428    1.8785 C.ar    1  UNL1        0.0000
     61 C           4.2598   -2.2446    0.3142 C.ar    1  UNL1        0.0000
     62 C           5.2395   -1.0199    2.1672 C.ar    1  UNL1        0.0000
     63 C           5.8196   -2.2034   -2.1350 C.ar    1  UNL1        0.0000
     64 C           3.9055   -1.2602   -3.4409 C.ar    1  UNL1        0.0000
     65 C           3.8746    0.1297   -3.3059 C.ar    1  UNL1        0.0000
     66 C           3.5403   -3.3679   -1.9668 C.3     1  UNL1        0.0000
     67 C           6.5332   -1.1092   -1.6304 C.ar    1  UNL1        0.0000
     68 C           4.9340   -3.3846    0.7608 C.ar    1  UNL1        0.0000
     69 C           6.5281   -3.3348   -2.5473 C.ar    1  UNL1        0.0000
     70 C           5.9447   -2.1546    2.5983 C.ar    1  UNL1        0.0000
     71 C           8.6213   -2.2909   -1.9433 C.ar    1  UNL1        0.0000
     72 C           3.5452    0.9412   -4.3871 C.ar    1  UNL1        0.0000
     73 C           3.2832   -1.0170   -5.7713 C.ar    1  UNL1        0.0000
     74 C           3.6134   -1.8259   -4.6841 C.ar    1  UNL1        0.0000
     75 C           7.9197   -3.3825   -2.4505 C.ar    1  UNL1        0.0000
     76 C           7.9215   -1.1523   -1.5376 C.ar    1  UNL1        0.0000
     77 C           3.2478    0.3706   -5.6259 C.ar    1  UNL1        0.0000
     78 C           3.8612    2.8523    1.1558 C.ar    1  UNL1        0.0000
     79 C           2.7219    3.1471   -1.0665 C.3     1  UNL1        0.0000
     80 C           2.2258    4.6217   -1.0880 C.3     1  UNL1        0.0000
     81 C           6.2675    2.1730   -0.0585 C.ar    1  UNL1        0.0000
     82 C           3.9362    2.8247   -0.2428 C.ar    1  UNL1        0.0000
     83 C           4.9703    2.5443    1.9317 C.ar    1  UNL1        0.0000
     84 C           3.0360    5.6018   -0.2711 C.ar    1  UNL1        0.0000
     85 C           0.7477    4.9086   -1.1005 C.ar    1  UNL1        0.0000
     86 C           0.2390    5.8024   -2.0499 C.ar    1  UNL1        0.0000
     87 C           2.8296    3.9774   -2.3120 C.3     1  UNL1        0.0000
     88 C           4.3475    5.9569   -0.6119 C.ar    1  UNL1        0.0000
     89 C           5.1563    2.4943   -0.8379 C.ar    1  UNL1        0.0000
     90 C           2.4929    6.1443    0.9028 C.ar    1  UNL1        0.0000
     91 C           6.1926    2.1834    1.3404 C.ar    1  UNL1        0.0000
     92 C           4.5478    7.3316    1.3674 C.ar    1  UNL1        0.0000
     93 C          -1.0949    6.2031   -2.0056 C.ar    1  UNL1        0.0000
     94 C          -1.4481    4.8023   -0.0708 C.ar    1  UNL1        0.0000
     95 C          -0.1124    4.4029   -0.1180 C.ar    1  UNL1        0.0000
     96 C           3.2395    6.9962    1.7138 C.ar    1  UNL1        0.0000
     97 C           5.0961    6.8093    0.1973 C.ar    1  UNL1        0.0000
     98 C          -1.9374    5.7130   -1.0062 C.ar    1  UNL1        0.0000
     99 C          -7.7017   -1.8096    1.7295 C.ar    1  UNL1        0.0000
    100 C          -8.9000   -2.4174    1.3195 C.ar    1  UNL1        0.0000
    101 C          -7.7676   -0.8127    2.7155 C.ar    1  UNL1        0.0000
    102 C         -10.1200   -2.0322    1.8709 C.ar    1  UNL1        0.0000
    103 C          -8.9854   -0.4277    3.2704 C.ar    1  UNL1        0.0000
    104 C         -10.1680   -1.0352    2.8470 C.ar    1  UNL1        0.0000
    105 C          -6.5799    2.4759    3.8979 C.ar    1  UNL1        0.0000
    106 C          -6.2274    1.8074    5.0815 C.ar    1  UNL1        0.0000
    107 C          -7.8349    3.1038    3.8389 C.ar    1  UNL1        0.0000
    108 C          -7.0998    1.7655    6.1668 C.ar    1  UNL1        0.0000
    109 C          -8.7037    3.0708    4.9273 C.ar    1  UNL1        0.0000
    110 C          -8.3419    2.3985    6.0960 C.ar    1  UNL1        0.0000
    111 C           7.3463    1.7871    2.1793 C.ar    1  UNL1        0.0000
    112 C           7.6513    2.4779    3.3620 C.ar    1  UNL1        0.0000
    113 C           8.1267    0.6737    1.8322 C.ar    1  UNL1        0.0000
    114 C           8.7088    2.0684    4.1711 C.ar    1  UNL1        0.0000
    115 C           9.1827    0.2650    2.6425 C.ar    1  UNL1        0.0000
    116 C           9.4774    0.9597    3.8150 C.ar    1  UNL1        0.0000
    117 C           6.8750   -2.0747    3.7464 C.ar    1  UNL1        0.0000
    118 C           6.6257   -1.2088    4.8224 C.ar    1  UNL1        0.0000
    119 C           8.0538   -2.8376    3.7696 C.ar    1  UNL1        0.0000
    120 C           7.5242   -1.1050    5.8803 C.ar    1  UNL1        0.0000
    121 C           8.9501   -2.7398    4.8313 C.ar    1  UNL1        0.0000
    122 C           8.6905   -1.8709    5.8916 C.ar    1  UNL1        0.0000
    123 H          -4.8499    4.3818    0.0283 H       1  UNL1        0.0000
    124 H          -4.9199    0.4880    3.0583 H       1  UNL1        0.0000
    125 H          -6.1793    4.4742    2.0771 H       1  UNL1        0.0000
    126 H          -3.8888    2.4286   -4.8089 H       1  UNL1        0.0000
    127 H          -4.2666    4.0965   -1.8914 H       1  UNL1        0.0000
    128 H          -2.8629    3.3459   -2.7801 H       1  UNL1        0.0000
    129 H          -5.8404    0.1143   -0.6768 H       1  UNL1        0.0000
    130 H          -6.3328    3.6853   -3.0045 H       1  UNL1        0.0000
    131 H          -9.7093    1.9320   -1.0041 H       1  UNL1        0.0000
    132 H          -3.3673    0.8199   -6.6181 H       1  UNL1        0.0000
    133 H          -3.6595   -2.4149   -3.8029 H       1  UNL1        0.0000
    134 H          -4.1933   -0.8014   -2.0137 H       1  UNL1        0.0000
    135 H          -8.7491    3.7032   -2.4628 H       1  UNL1        0.0000
    136 H          -8.2359    0.1338   -0.1197 H       1  UNL1        0.0000
    137 H          -3.2488   -1.6145   -6.1219 H       1  UNL1        0.0000
    138 H          -3.0827   -2.4667    1.8338 H       1  UNL1        0.0000
    139 H          -7.2347   -2.5178   -0.8511 H       1  UNL1        0.0000
    140 H          -5.2388   -1.9416    2.9051 H       1  UNL1        0.0000
    141 H          -0.6093   -6.4042   -1.8893 H       1  UNL1        0.0000
    142 H          -3.5283   -4.5987   -2.2213 H       1  UNL1        0.0000
    143 H          -1.8532   -4.0186   -2.6536 H       1  UNL1        0.0000
    144 H          -4.0837   -6.3528   -1.2451 H       1  UNL1        0.0000
    145 H          -1.8655   -4.9393    2.1438 H       1  UNL1        0.0000
    146 H          -5.0415   -7.7792    2.6870 H       1  UNL1        0.0000
    147 H           1.7565   -7.0648   -1.5483 H       1  UNL1        0.0000
    148 H           2.1517   -4.0330    1.4729 H       1  UNL1        0.0000
    149 H          -0.2104   -3.3918    1.1375 H       1  UNL1        0.0000
    150 H          -3.2360   -6.3520    3.6336 H       1  UNL1        0.0000
    151 H          -5.4464   -7.7747    0.2339 H       1  UNL1        0.0000
    152 H           3.1295   -5.9060    0.1721 H       1  UNL1        0.0000
    153 H           3.9270   -0.1499    0.7259 H       1  UNL1        0.0000
    154 H           6.2649   -4.2494    2.2014 H       1  UNL1        0.0000
    155 H           5.3732   -0.0802    2.6856 H       1  UNL1        0.0000
    156 H           4.0707    0.5727   -2.3372 H       1  UNL1        0.0000
    157 H           4.0713   -4.2623   -1.6692 H       1  UNL1        0.0000
    158 H           2.6206   -3.5481   -2.5097 H       1  UNL1        0.0000
    159 H           5.9993   -0.2289   -1.2947 H       1  UNL1        0.0000
    160 H           5.9866   -4.1838   -2.9531 H       1  UNL1        0.0000
    161 H           9.7038   -2.3230   -1.8668 H       1  UNL1        0.0000
    162 H           3.5024    2.0170   -4.2573 H       1  UNL1        0.0000
    163 H           3.0551   -1.4701   -6.7316 H       1  UNL1        0.0000
    164 H           3.6384   -2.9057   -4.7964 H       1  UNL1        0.0000
    165 H           8.4525   -4.2713   -2.7753 H       1  UNL1        0.0000
    166 H           8.4623   -0.2955   -1.1474 H       1  UNL1        0.0000
    167 H           2.9890    1.0020   -6.4704 H       1  UNL1        0.0000
    168 H           2.9234    3.1144    1.6295 H       1  UNL1        0.0000
    169 H           7.2089    1.9288   -0.5400 H       1  UNL1        0.0000
    170 H           4.8864    2.5527    3.0138 H       1  UNL1        0.0000
    171 H           0.9029    6.1967   -2.8136 H       1  UNL1        0.0000
    172 H           3.8158    4.2775   -2.6443 H       1  UNL1        0.0000
    173 H           2.1408    3.7256   -3.1096 H       1  UNL1        0.0000
    174 H           4.8051    5.5620   -1.5104 H       1  UNL1        0.0000
    175 H           1.4752    5.9000    1.1826 H       1  UNL1        0.0000
    176 H           5.1314    7.9943    1.9990 H       1  UNL1        0.0000
    177 H          -1.4734    6.9043   -2.7433 H       1  UNL1        0.0000
    178 H          -2.1038    4.3951    0.6911 H       1  UNL1        0.0000
    179 H           0.2611    3.6934    0.6100 H       1  UNL1        0.0000
    180 H           2.7939    7.3989    2.6185 H       1  UNL1        0.0000
    181 H           6.1116    7.0635   -0.0909 H       1  UNL1        0.0000
    182 H          -2.9729    6.0357   -0.9608 H       1  UNL1        0.0000
    183 H           5.2435    2.4907   -1.9197 H       1  UNL1        0.0000
    184 H          -3.6370    0.3774    0.9971 H       1  UNL1        0.0000
    185 H           4.8296   -4.3198    0.2248 H       1  UNL1        0.0000
    186 H          -5.1013   -3.1158   -1.8913 H       1  UNL1        0.0000
    187 H          -8.8707   -3.2102    0.5789 H       1  UNL1        0.0000
    188 H          -6.8654   -0.3038    3.0237 H       1  UNL1        0.0000
    189 H         -11.0343   -2.5179    1.5429 H       1  UNL1        0.0000
    190 H          -9.0041    0.3560    4.0201 H       1  UNL1        0.0000
    191 H         -11.1202   -0.7351    3.2738 H       1  UNL1        0.0000
    192 H          -5.2538    1.3335    5.1557 H       1  UNL1        0.0000
    193 H          -8.1418    3.5881    2.9178 H       1  UNL1        0.0000
    194 H          -6.8056    1.2446    7.0730 H       1  UNL1        0.0000
    195 H          -9.6722    3.5568    4.8565 H       1  UNL1        0.0000
    196 H          -9.0211    2.3666    6.9422 H       1  UNL1        0.0000
    197 H           7.0655    3.3507    3.6343 H       1  UNL1        0.0000
    198 H           7.8631    0.0919    0.9570 H       1  UNL1        0.0000
    199 H           8.9328    2.6159    5.0818 H       1  UNL1        0.0000
    200 H           9.7534   -0.6179    2.3756 H       1  UNL1        0.0000
    201 H          10.2872    0.6271    4.4557 H       1  UNL1        0.0000
    202 H           5.7140   -0.6211    4.8329 H       1  UNL1        0.0000
    203 H           8.2827   -3.4869    2.9305 H       1  UNL1        0.0000
    204 H           7.3115   -0.4255    6.7000 H       1  UNL1        0.0000
    205 H           9.8589   -3.3345    4.8243 H       1  UNL1        0.0000
    206 H           9.3905   -1.7902    6.7175 H       1  UNL1        0.0000
@<TRIPOS>BOND
     1     1     9    1
     2     2     8    1
     3     2    12    1
     4     2    10    1
     5     2     1    1
     6     3    10    1
     7     3    37    1
     8     3     9    1
     9     4    12    1
    10     4    11    1
    11     5    14    1
    12     5    13    1
    13     6     8    1
    14     6     7    1
    15     7     1    1
    16    11     1    1
    17    13     1    1
    18    14     2    1
    19    15    20   ar
    20    16     6    1
    21    16    19    1
    22    17    24    1
    23    17    21    1
    24    17    16    1
    25    18    28   ar
    26    18   124    1
    27    19    15   ar
    28    19    26   ar
    29    20   125    1
    30    20    28   ar
    31    21    25   ar
    32    22    32   ar
    33    22    17    1
    34    23    22   ar
    35    24   127    1
    36    24    16    1
    37    25    34   ar
    38    25   129    1
    39    26    18   ar
    40    27    33   ar
    41    27    21   ar
    42    28   105    1
    43    29   131    1
    44    29    34   ar
    45    30    35   ar
    46    30    23   ar
    47    31   133    1
    48    31    32   ar
    49    32   134    1
    50    33    29   ar
    51    34   136    1
    52    35    31   ar
    53    36   138    1
    54    36    41   ar
    55    37    38    1
    56    37    40    1
    57    38    43    1
    58    38    42    1
    59    39    49   ar
    60    40    36   ar
    61    41   140    1
    62    42    48   ar
    63    43    53   ar
    64    44    51   ar
    65    44    43   ar
    66    45    37    1
    67    45    38    1
    68    46    42   ar
    69    46    55   ar
    70    47    39   ar
    71    47    40   ar
    72    48   145    1
    73    48    54   ar
    74    49    99    1
    75    49    41   ar
    76    50    54   ar
    77    50   146    1
    78    51    56   ar
    79    52   148    1
    80    53    52   ar
    81    53   149    1
    82    54   150    1
    83    55    50   ar
    84    56   152    1
    85    56    52   ar
    86    57    62   ar
    87    58     4    1
    88    58    61    1
    89    59    63    1
    90    59    66    1
    91    59    58    1
    92    60   154    1
    93    60    70   ar
    94    61    68   ar
    95    61    57   ar
    96    62    70   ar
    97    62   155    1
    98    63    67   ar
    99    64    65   ar
   100    64    59    1
   101    65   156    1
   102    66   157    1
   103    66    58    1
   104    67    76   ar
   105    67   159    1
   106    68    60   ar
   107    69    75   ar
   108    69    63   ar
   109    70   117    1
   110    71   161    1
   111    71    76   ar
   112    72   162    1
   113    72    65   ar
   114    73    77   ar
   115    73    74   ar
   116    74    64   ar
   117    75    71   ar
   118    76   166    1
   119    77    72   ar
   120    78   168    1
   121    78    83   ar
   122    79     5    1
   123    79    82    1
   124    80    79    1
   125    80    84    1
   126    81    91   ar
   127    82    78   ar
   128    83   170    1
   129    84    90   ar
   130    85    80    1
   131    85    95   ar
   132    86    93   ar
   133    86    85   ar
   134    87    80    1
   135    87    79    1
   136    88    84   ar
   137    88    97   ar
   138    89    82   ar
   139    89    81   ar
   140    90   175    1
   141    90    96   ar
   142    91    83   ar
   143    91   111    1
   144    92    96   ar
   145    92   176    1
   146    93    98   ar
   147    94   178    1
   148    95    94   ar
   149    95   179    1
   150    96   180    1
   151    97    92   ar
   152    98   182    1
   153    98    94   ar
   154    99   101   ar
   155   100    99   ar
   156   100   102   ar
   157   101   188    1
   158   101   103   ar
   159   102   104   ar
   160   103   190    1
   161   104   103   ar
   162   104   191    1
   163   105   106   ar
   164   106   192    1
   165   106   108   ar
   166   107   105   ar
   167   107   109   ar
   168   108   194    1
   169   109   110   ar
   170   110   108   ar
   171   110   196    1
   172   111   112   ar
   173   112   197    1
   174   112   114   ar
   175   113   111   ar
   176   113   115   ar
   177   114   199    1
   178   115   116   ar
   179   116   114   ar
   180   116   201    1
   181   117   119   ar
   182   117   118   ar
   183   118   202    1
   184   118   120   ar
   185   119   121   ar
   186   120   122   ar
   187   120   204    1
   188   121   122   ar
   189   122   206    1
   190   123    15    1
   191   126    23    1
   192   128    24    1
   193   130    27    1
   194   132    30    1
   195   135    33    1
   196   137    35    1
   197   139    39    1
   198   141    44    1
   199   142    45    1
   200   143    45    1
   201   144    46    1
   202   147    51    1
   203   151    55    1
   204   153    57    1
   205   158    66    1
   206   160    69    1
   207   163    73    1
   208   164    74    1
   209   165    75    1
   210   167    77    1
   211   169    81    1
   212   171    86    1
   213   172    87    1
   214   173    87    1
   215   174    88    1
   216   177    93    1
   217   181    97    1
   218   183    89    1
   219   184    26    1
   220   185    68    1
   221   186    47    1
   222   187   100    1
   223   189   102    1
   224   193   107    1
   225   195   109    1
   226   198   113    1
   227   200   115    1
   228   203   119    1
   229   205   121    1
