@<TRIPOS>MOLECULE
RhRh_EtEtiPr-O2C4_25_sp
 114 117 0 0 0
SMALL
GASTEIGER

@<TRIPOS>ATOM
      1 Rh          0.0364    0.0418   -1.1597 Rh      1  UNL1        0.0000
      2 Rh          0.0925    0.0903    1.2202 Rh      1  UNL1        0.0000
      3 C          -1.8528   -1.7625    0.1066 C.3     1  UNL1        0.0000
      4 C          -1.8880    1.8607    0.0788 C.3     1  UNL1        0.0000
      5 C           1.9185    1.9515   -0.0749 C.3     1  UNL1        0.0000
      6 C           1.9187   -1.8292    0.0066 C.3     1  UNL1        0.0000
      7 O          -1.4997    1.4252   -1.0547 O.3     1  UNL1        0.0000
      8 O          -1.3458    1.5500    1.1902 O.3     1  UNL1        0.0000
      9 O          -1.3507   -1.4712   -1.0285 O.3     1  UNL1        0.0000
     10 O          -1.4397   -1.2908    1.2162 O.3     1  UNL1        0.0000
     11 O           1.4347    1.5371   -1.1796 O.3     1  UNL1        0.0000
     12 O           1.5734    1.5253    1.0751 O.3     1  UNL1        0.0000
     13 O           1.5450   -1.3490   -1.1153 O.3     1  UNL1        0.0000
     14 O           1.4916   -1.4235    1.1358 O.3     1  UNL1        0.0000
     15 C          -3.0797    2.8300    0.1225 C.3     1  UNL1        0.0000
     16 C          -4.0565    2.5162   -1.0475 C.3     1  UNL1        0.0000
     17 C          -3.6449    2.9135   -2.4693 C.3     1  UNL1        0.0000
     18 C          -2.5011    4.2896    0.0110 C.3     1  UNL1        0.0000
     19 C          -3.5997    5.3591   -0.0922 C.3     1  UNL1        0.0000
     20 C          -1.5464    4.6628    1.1544 C.3     1  UNL1        0.0000
     21 C          -3.8238    2.6432    1.4711 C.3     1  UNL1        0.0000
     22 C          -4.4237    1.2550    1.7104 C.3     1  UNL1        0.0000
     23 C          -3.0630   -2.7178    0.1140 C.3     1  UNL1        0.0000
     24 C          -4.2741   -1.9242   -0.4667 C.3     1  UNL1        0.0000
     25 C          -4.1591   -1.3675   -1.8888 C.3     1  UNL1        0.0000
     26 C          -2.6772   -3.9407   -0.7878 C.3     1  UNL1        0.0000
     27 C          -1.6254   -4.8246   -0.1054 C.3     1  UNL1        0.0000
     28 C          -3.8503   -4.7937   -1.2919 C.3     1  UNL1        0.0000
     29 C          -3.3696   -3.0766    1.5939 C.3     1  UNL1        0.0000
     30 C          -4.5135   -4.0574    1.8690 C.3     1  UNL1        0.0000
     31 C           3.0320    2.9977   -0.1795 C.3     1  UNL1        0.0000
     32 C           2.6097    4.1076   -1.1898 C.3     1  UNL1        0.0000
     33 C           1.1528    4.5831   -1.1686 C.3     1  UNL1        0.0000
     34 C           4.2572    2.2158   -0.7993 C.3     1  UNL1        0.0000
     35 C           5.4531    3.1169   -1.1342 C.3     1  UNL1        0.0000
     36 C           4.7171    1.0374    0.0662 C.3     1  UNL1        0.0000
     37 C           3.4038    3.5581    1.2122 C.3     1  UNL1        0.0000
     38 C           2.3712    4.4441    1.9135 C.3     1  UNL1        0.0000
     39 C           2.9170   -2.9953   -0.0452 C.3     1  UNL1        0.0000
     40 C           3.9719   -2.6428   -1.1352 C.3     1  UNL1        0.0000
     41 C           5.0447   -3.7039   -1.3877 C.3     1  UNL1        0.0000
     42 C           2.1098   -4.2678   -0.4591 C.3     1  UNL1        0.0000
     43 C           1.5066   -4.2985   -1.8644 C.3     1  UNL1        0.0000
     44 C           3.6094   -3.2723    1.3321 C.3     1  UNL1        0.0000
     45 C           4.4159   -2.0810    1.8689 C.3     1  UNL1        0.0000
     46 C           2.6913   -3.8188    2.4401 C.3     1  UNL1        0.0000
     47 H          -4.2599    1.4419   -1.0398 H       1  UNL1        0.0000
     48 H          -5.0094    3.0009   -0.8046 H       1  UNL1        0.0000
     49 H          -2.7218    2.4158   -2.7657 H       1  UNL1        0.0000
     50 H          -3.5001    3.9919   -2.5767 H       1  UNL1        0.0000
     51 H          -4.4329    2.6208   -3.1709 H       1  UNL1        0.0000
     52 H          -1.9239    4.3149   -0.9206 H       1  UNL1        0.0000
     53 H          -4.3004    5.1738   -0.9085 H       1  UNL1        0.0000
     54 H          -3.1404    6.3373   -0.2659 H       1  UNL1        0.0000
     55 H          -4.1748    5.4324    0.8359 H       1  UNL1        0.0000
     56 H          -1.0828    5.6316    0.9453 H       1  UNL1        0.0000
     57 H          -0.7527    3.9277    1.2897 H       1  UNL1        0.0000
     58 H          -2.0789    4.7568    2.1055 H       1  UNL1        0.0000
     59 H          -3.1345    2.8631    2.2876 H       1  UNL1        0.0000
     60 H          -4.8882    1.2117    2.7005 H       1  UNL1        0.0000
     61 H          -3.6506    0.4825    1.6774 H       1  UNL1        0.0000
     62 H          -5.1964    1.0061    0.9776 H       1  UNL1        0.0000
     63 H          -5.1429   -2.5866   -0.4143 H       1  UNL1        0.0000
     64 H          -4.4890   -1.0997    0.2201 H       1  UNL1        0.0000
     65 H          -5.1170   -0.9274   -2.1859 H       1  UNL1        0.0000
     66 H          -3.9118   -2.1439   -2.6179 H       1  UNL1        0.0000
     67 H          -3.3929   -0.5946   -1.9620 H       1  UNL1        0.0000
     68 H          -2.2058   -3.5076   -1.6746 H       1  UNL1        0.0000
     69 H          -1.2161   -5.5495   -0.8149 H       1  UNL1        0.0000
     70 H          -2.0479   -5.3852    0.7342 H       1  UNL1        0.0000
     71 H          -0.7918   -4.2299    0.2787 H       1  UNL1        0.0000
     72 H          -3.4638   -5.5666   -1.9648 H       1  UNL1        0.0000
     73 H          -4.5784   -4.2079   -1.8575 H       1  UNL1        0.0000
     74 H          -4.3826   -5.3018   -0.4859 H       1  UNL1        0.0000
     75 H          -3.5838   -2.1370    2.1116 H       1  UNL1        0.0000
     76 H          -4.7220   -4.0779    2.9434 H       1  UNL1        0.0000
     77 H          -4.2668   -5.0788    1.5703 H       1  UNL1        0.0000
     78 H          -5.4421   -3.7761    1.3644 H       1  UNL1        0.0000
     79 H           3.2702    4.9657   -1.0227 H       1  UNL1        0.0000
     80 H           2.8251    3.7433   -2.1995 H       1  UNL1        0.0000
     81 H           1.0091    5.3578   -1.9290 H       1  UNL1        0.0000
     82 H           0.8646    5.0083   -0.2083 H       1  UNL1        0.0000
     83 H           0.4675    3.7645   -1.3983 H       1  UNL1        0.0000
     84 H           3.8788    1.8034   -1.7418 H       1  UNL1        0.0000
     85 H           6.2235    2.5251   -1.6390 H       1  UNL1        0.0000
     86 H           5.9096    3.5402   -0.2341 H       1  UNL1        0.0000
     87 H           5.1841    3.9411   -1.7986 H       1  UNL1        0.0000
     88 H           5.4582    0.4429   -0.4772 H       1  UNL1        0.0000
     89 H           3.8907    0.3771    0.3341 H       1  UNL1        0.0000
     90 H           5.1865    1.3724    0.9962 H       1  UNL1        0.0000
     91 H           4.3306    4.1303    1.0985 H       1  UNL1        0.0000
     92 H           2.2142    5.3901    1.3886 H       1  UNL1        0.0000
     93 H           2.7189    4.6880    2.9225 H       1  UNL1        0.0000
     94 H           1.4091    3.9365    2.0098 H       1  UNL1        0.0000
     95 H           3.4381   -2.4384   -2.0643 H       1  UNL1        0.0000
     96 H           4.4559   -1.7004   -0.8660 H       1  UNL1        0.0000
     97 H           4.6106   -4.6715   -1.6571 H       1  UNL1        0.0000
     98 H           5.6912   -3.8588   -0.5192 H       1  UNL1        0.0000
     99 H           5.6853   -3.3912   -2.2182 H       1  UNL1        0.0000
    100 H           2.7832   -5.1238   -0.3337 H       1  UNL1        0.0000
    101 H           2.2695   -4.2135   -2.6431 H       1  UNL1        0.0000
    102 H           0.7861   -3.4913   -2.0104 H       1  UNL1        0.0000
    103 H           0.9870   -5.2496   -2.0168 H       1  UNL1        0.0000
    104 H           4.3270   -4.0729    1.1135 H       1  UNL1        0.0000
    105 H           4.9446   -2.3738    2.7816 H       1  UNL1        0.0000
    106 H           3.7604   -1.2429    2.1172 H       1  UNL1        0.0000
    107 H           5.1667   -1.7305    1.1567 H       1  UNL1        0.0000
    108 H           2.2092   -4.7576    2.1576 H       1  UNL1        0.0000
    109 H           1.9163   -3.0986    2.7060 H       1  UNL1        0.0000
    110 H           3.2903   -4.0222    3.3338 H       1  UNL1        0.0000
    111 H          -4.6231    3.3903    1.5158 H       1  UNL1        0.0000
    112 H           3.6338    2.7165    1.8692 H       1  UNL1        0.0000
    113 H           1.3070   -4.4147    0.2670 H       1  UNL1        0.0000
    114 H          -2.4577   -3.4572    2.0615 H       1  UNL1        0.0000
@<TRIPOS>BOND
     1     1    13    1
     2     1     7    1
     3     1     9    1
     4     1     2    1
     5     3    23    1
     6     3    10    1
     7     4    15    1
     8     4     8    1
     9     5    12    1
    10     6    14    1
    11     7     4    1
    12     8     2    1
    13     9     3    1
    14    10     2    1
    15    11     1    1
    16    11     5    1
    17    12     2    1
    18    13     6    1
    19    14     2    1
    20    15    21    1
    21    16    47    1
    22    16    48    1
    23    16    15    1
    24    17    16    1
    25    18    15    1
    26    18    20    1
    27    19    18    1
    28    19    55    1
    29    20    57    1
    30    20    58    1
    31    21   111    1
    32    21    22    1
    33    21    59    1
    34    22    60    1
    35    23    29    1
    36    24    63    1
    37    24    23    1
    38    24    64    1
    39    25    24    1
    40    26    27    1
    41    26    23    1
    42    27    71    1
    43    27    70    1
    44    28    26    1
    45    28    74    1
    46    29    30    1
    47    29   114    1
    48    29    75    1
    49    30    76    1
    50    31     5    1
    51    31    37    1
    52    32    33    1
    53    32    79    1
    54    32    31    1
    55    33    82    1
    56    34    31    1
    57    34    36    1
    58    35    34    1
    59    35    86    1
    60    36    89    1
    61    36    90    1
    62    37   112    1
    63    37    38    1
    64    38    94    1
    65    38    93    1
    66    39     6    1
    67    39    44    1
    68    40    96    1
    69    40    39    1
    70    41    40    1
    71    41    98    1
    72    42   100    1
    73    42    39    1
    74    42   113    1
    75    43    42    1
    76    44    45    1
    77    44    46    1
    78    45   106    1
    79    45   105    1
    80    46   109    1
    81    46   110    1
    82    49    17    1
    83    50    17    1
    84    51    17    1
    85    52    18    1
    86    53    19    1
    87    54    19    1
    88    56    20    1
    89    61    22    1
    90    62    22    1
    91    65    25    1
    92    66    25    1
    93    67    25    1
    94    68    26    1
    95    69    27    1
    96    72    28    1
    97    73    28    1
    98    77    30    1
    99    78    30    1
   100    80    32    1
   101    81    33    1
   102    83    33    1
   103    84    34    1
   104    85    35    1
   105    87    35    1
   106    88    36    1
   107    91    37    1
   108    92    38    1
   109    95    40    1
   110    97    41    1
   111    99    41    1
   112   101    43    1
   113   102    43    1
   114   103    43    1
   115   104    44    1
   116   107    45    1
   117   108    46    1
