@<TRIPOS>MOLECULE
RhRh_MeMePh-O2C4_3ax-1_sp
 94 101 0 0 0
SMALL
GASTEIGER

@<TRIPOS>ATOM
      1 Rh          0.0550    0.2440   -1.0802 Rh      1  UNL1        0.0000
      2 Rh         -0.2130   -0.4202    1.1987 Rh      1  UNL1        0.0000
      3 C           1.9891    1.4035    0.7265 C.3     1  UNL1        0.0000
      4 C           1.5632   -2.1152   -0.3308 C.3     1  UNL1        0.0000
      5 C          -2.0747   -1.6624   -0.6268 C.3     1  UNL1        0.0000
      6 C          -1.6294    1.9995    0.4788 C.3     1  UNL1        0.0000
      7 O          -1.2171    1.8107   -0.7101 O.3     1  UNL1        0.0000
      8 O          -1.4061    1.2353    1.4705 O.3     1  UNL1        0.0000
      9 O          -1.5130   -1.0053   -1.5586 O.3     1  UNL1        0.0000
     10 O          -1.8130   -1.5617    0.6149 O.3     1  UNL1        0.0000
     11 O           1.3576   -1.3363   -1.3128 O.3     1  UNL1        0.0000
     12 O           1.0056   -2.0280    0.8114 O.3     1  UNL1        0.0000
     13 O           1.6126    1.4339   -0.4877 O.3     1  UNL1        0.0000
     14 O           1.4484    0.7153    1.6509 O.3     1  UNL1        0.0000
     15 C          -2.4409    3.2816    0.7192 C.3     1  UNL1        0.0000
     16 C          -3.6970    3.2013   -0.1572 C.ar    1  UNL1        0.0000
     17 C          -4.0235    4.1748   -1.1039 C.ar    1  UNL1        0.0000
     18 C          -5.1885    4.0673   -1.8671 C.ar    1  UNL1        0.0000
     19 C          -6.0416    2.9796   -1.6999 C.ar    1  UNL1        0.0000
     20 C          -5.7233    1.9980   -0.7594 C.ar    1  UNL1        0.0000
     21 C          -4.5654    2.1119    0.0058 C.ar    1  UNL1        0.0000
     22 C          -3.0958   -2.7384   -1.0231 C.3     1  UNL1        0.0000
     23 C          -4.2739   -2.6858   -0.0489 C.ar    1  UNL1        0.0000
     24 C          -4.7133   -3.7926    0.6794 C.ar    1  UNL1        0.0000
     25 C          -5.8075   -3.6904    1.5428 C.ar    1  UNL1        0.0000
     26 C          -6.4734   -2.4772    1.6957 C.ar    1  UNL1        0.0000
     27 C          -6.0419   -1.3633    0.9714 C.ar    1  UNL1        0.0000
     28 C          -4.9595   -1.4728    0.1045 C.ar    1  UNL1        0.0000
     29 C           2.6043   -3.2287   -0.5152 C.3     1  UNL1        0.0000
     30 C           3.9344   -2.6624    0.0226 C.ar    1  UNL1        0.0000
     31 C           5.0928   -2.6154   -0.7611 C.ar    1  UNL1        0.0000
     32 C           6.2941   -2.1342   -0.2359 C.ar    1  UNL1        0.0000
     33 C           6.3578   -1.6822    1.0798 C.ar    1  UNL1        0.0000
     34 C           5.2078   -1.7182    1.8693 C.ar    1  UNL1        0.0000
     35 C           4.0093   -2.1986    1.3459 C.ar    1  UNL1        0.0000
     36 C           3.1394    2.3417    1.1146 C.3     1  UNL1        0.0000
     37 C           4.1770    2.3745   -0.0099 C.ar    1  UNL1        0.0000
     38 C           4.6731    1.1642   -0.5161 C.ar    1  UNL1        0.0000
     39 C           5.6490    1.1509   -1.5074 C.ar    1  UNL1        0.0000
     40 C           6.1582    2.3503   -2.0094 C.ar    1  UNL1        0.0000
     41 C           5.6776    3.5581   -1.5101 C.ar    1  UNL1        0.0000
     42 C           4.6932    3.5685   -0.5189 C.ar    1  UNL1        0.0000
     43 C           2.1980   -4.4653    0.3146 C.3     1  UNL1        0.0000
     44 C           2.6728   -3.6162   -1.9992 C.3     1  UNL1        0.0000
     45 C           2.4629    3.7093    1.3607 C.3     1  UNL1        0.0000
     46 C           3.8114    1.8638    2.4163 C.3     1  UNL1        0.0000
     47 C          -2.8450    3.4071    2.1996 C.3     1  UNL1        0.0000
     48 C          -1.5154    4.4565    0.3453 C.3     1  UNL1        0.0000
     49 C          -2.3092   -4.0666   -0.9567 C.3     1  UNL1        0.0000
     50 C          -3.5967   -2.5167   -2.4627 C.3     1  UNL1        0.0000
     51 H          -3.3700    5.0244   -1.2607 H       1  UNL1        0.0000
     52 H          -5.4224    4.8363   -2.5971 H       1  UNL1        0.0000
     53 H          -6.9441    2.8931   -2.2969 H       1  UNL1        0.0000
     54 H          -6.3766    1.1413   -0.6284 H       1  UNL1        0.0000
     55 H          -4.3253    1.3408    0.7321 H       1  UNL1        0.0000
     56 H          -4.2038   -4.7447    0.5886 H       1  UNL1        0.0000
     57 H          -6.1321   -4.5637    2.1006 H       1  UNL1        0.0000
     58 H          -7.3178   -2.3965    2.3731 H       1  UNL1        0.0000
     59 H          -6.5466   -0.4089    1.0894 H       1  UNL1        0.0000
     60 H          -4.6311   -0.6031   -0.4551 H       1  UNL1        0.0000
     61 H           5.0704   -2.9558   -1.7889 H       1  UNL1        0.0000
     62 H           7.1799   -2.1101   -0.8635 H       1  UNL1        0.0000
     63 H           7.2899   -1.3009    1.4843 H       1  UNL1        0.0000
     64 H           5.2401   -1.3679    2.8965 H       1  UNL1        0.0000
     65 H           3.1187   -2.2005    1.9631 H       1  UNL1        0.0000
     66 H           4.2873    0.2213   -0.1433 H       1  UNL1        0.0000
     67 H           6.0090    0.1994   -1.8837 H       1  UNL1        0.0000
     68 H           6.9197    2.3413   -2.7834 H       1  UNL1        0.0000
     69 H           6.0627    4.4990   -1.8922 H       1  UNL1        0.0000
     70 H           4.3300    4.5217   -0.1527 H       1  UNL1        0.0000
     71 H           2.9579   -5.2431    0.2002 H       1  UNL1        0.0000
     72 H           2.1000   -4.2244    1.3726 H       1  UNL1        0.0000
     73 H           1.2389   -4.8613   -0.0341 H       1  UNL1        0.0000
     74 H           1.6936   -3.9686   -2.3339 H       1  UNL1        0.0000
     75 H           2.9535   -2.7696   -2.6265 H       1  UNL1        0.0000
     76 H           3.3906   -4.4280   -2.1452 H       1  UNL1        0.0000
     77 H           3.1898    4.4357    1.7336 H       1  UNL1        0.0000
     78 H           2.0112    4.0972    0.4445 H       1  UNL1        0.0000
     79 H           1.6819    3.6001    2.1187 H       1  UNL1        0.0000
     80 H           4.2427    0.8692    2.2892 H       1  UNL1        0.0000
     81 H           4.6168    2.5557    2.6784 H       1  UNL1        0.0000
     82 H           3.0908    1.8256    3.2359 H       1  UNL1        0.0000
     83 H          -3.4270    4.3230    2.3360 H       1  UNL1        0.0000
     84 H          -3.4514    2.5609    2.5255 H       1  UNL1        0.0000
     85 H          -1.9601    3.4515    2.8392 H       1  UNL1        0.0000
     86 H          -2.0205    5.4101    0.5223 H       1  UNL1        0.0000
     87 H          -0.6182    4.4329    0.9705 H       1  UNL1        0.0000
     88 H          -1.2044    4.4009   -0.6990 H       1  UNL1        0.0000
     89 H          -2.9386   -4.9002   -1.2801 H       1  UNL1        0.0000
     90 H          -1.4482   -4.0161   -1.6298 H       1  UNL1        0.0000
     91 H          -1.9476   -4.2624    0.0552 H       1  UNL1        0.0000
     92 H          -4.3142   -3.3014   -2.7186 H       1  UNL1        0.0000
     93 H          -4.0943   -1.5503   -2.5675 H       1  UNL1        0.0000
     94 H          -2.7660   -2.5469   -3.1704 H       1  UNL1        0.0000
@<TRIPOS>BOND
     1     1     7    1
     2     1    13    1
     3     1     2    1
     4     2     8    1
     5     2    14    1
     6     3    36    1
     7     3    14    1
     8     4    12    1
     9     5    10    1
    10     6    15    1
    11     6     8    1
    12     7     6    1
    13     9     1    1
    14     9     5    1
    15    10     2    1
    16    11     1    1
    17    11     4    1
    18    12     2    1
    19    13     3    1
    20    15    47    1
    21    16    21   ar
    22    16    15    1
    23    17    16   ar
    24    18    19   ar
    25    18    17   ar
    26    19    20   ar
    27    20    54    1
    28    20    21   ar
    29    21    55    1
    30    22    49    1
    31    22     5    1
    32    22    23    1
    33    23    28   ar
    34    23    24   ar
    35    24    25   ar
    36    25    26   ar
    37    25    57    1
    38    26    58    1
    39    27    59    1
    40    27    26   ar
    41    28    27   ar
    42    29     4    1
    43    29    30    1
    44    29    43    1
    45    30    35   ar
    46    31    32   ar
    47    31    30   ar
    48    32    33   ar
    49    33    63    1
    50    33    34   ar
    51    34    64    1
    52    35    34   ar
    53    35    65    1
    54    36    45    1
    55    36    46    1
    56    37    36    1
    57    38    66    1
    58    38    37   ar
    59    39    38   ar
    60    40    41   ar
    61    40    39   ar
    62    41    42   ar
    63    42    70    1
    64    42    37   ar
    65    43    72    1
    66    44    29    1
    67    45    77    1
    68    45    79    1
    69    46    81    1
    70    46    82    1
    71    47    83    1
    72    47    84    1
    73    47    85    1
    74    48    86    1
    75    48    15    1
    76    48    87    1
    77    49    91    1
    78    50    22    1
    79    51    17    1
    80    52    18    1
    81    53    19    1
    82    56    24    1
    83    60    28    1
    84    61    31    1
    85    62    32    1
    86    67    39    1
    87    68    40    1
    88    69    41    1
    89    71    43    1
    90    73    43    1
    91    74    44    1
    92    75    44    1
    93    76    44    1
    94    78    45    1
    95    80    46    1
    96    88    48    1
    97    89    49    1
    98    90    49    1
    99    92    50    1
   100    93    50    1
   101    94    50    1
