@<TRIPOS>MOLECULE
RhRh_ACyPentyl4_13_sp
 126 141 0 0 0
SMALL
GASTEIGER

@<TRIPOS>ATOM
      1 Rh          0.4297    0.3322    0.4243 Rh      1  UNL1        0.0000
      2 Rh          0.3568   -0.1704   -1.9123 Rh      1  UNL1        0.0000
      3 C          -2.1890    0.5817   -0.7824 C.3     1  UNL1        0.0000
      4 C           0.8833    2.6070   -1.3086 C.3     1  UNL1        0.0000
      5 C           2.9860   -0.3636   -0.7240 C.3     1  UNL1        0.0000
      6 C          -0.1008   -2.4267   -0.1663 C.3     1  UNL1        0.0000
      7 O          -1.6048    0.6432    0.3413 O.3     1  UNL1        0.0000
      8 O          -1.6434    0.2677   -1.8878 O.3     1  UNL1        0.0000
      9 O           0.1456   -1.6589    0.8113 O.3     1  UNL1        0.0000
     10 O          -0.0681   -2.1125   -1.3985 O.3     1  UNL1        0.0000
     11 O           2.3854   -0.5423   -1.8266 O.3     1  UNL1        0.0000
     12 O           2.4622    0.0106    0.3710 O.3     1  UNL1        0.0000
     13 O           0.7816    1.8146   -2.2955 O.3     1  UNL1        0.0000
     14 O           0.7431    2.3014   -0.0839 O.3     1  UNL1        0.0000
     15 N          -4.2089    1.0032    0.5161 N.am    1  UNL1        0.0000
     16 N          -1.6445   -4.2739   -0.4716 N.am    1  UNL1        0.0000
     17 N           4.9537   -1.1489    0.4637 N.am    1  UNL1        0.0000
     18 N           0.6865    4.8938   -0.5498 N.am    1  UNL1        0.0000
     19 C          -3.6764    0.9707   -0.8534 C.3     1  UNL1        0.0000
     20 C          -4.4573    0.0341   -1.8109 C.3     1  UNL1        0.0000
     21 C          -4.2262    0.5887   -3.2348 C.3     1  UNL1        0.0000
     22 C          -3.7175    2.0429   -3.0608 C.3     1  UNL1        0.0000
     23 C          -3.8284    2.3494   -1.5615 C.3     1  UNL1        0.0000
     24 C          -4.8836   -0.0509    1.1706 C.2     1  UNL1        0.0000
     25 C          -4.9291    0.3195    2.6136 C.ar    1  UNL1        0.0000
     26 C          -5.4878   -0.3551    3.6883 C.ar    1  UNL1        0.0000
     27 C          -5.3709    0.2407    4.9498 C.ar    1  UNL1        0.0000
     28 C          -4.7210    1.4716    5.1124 C.ar    1  UNL1        0.0000
     29 C          -4.1676    2.1463    4.0178 C.ar    1  UNL1        0.0000
     30 C          -4.2851    1.5414    2.7759 C.ar    1  UNL1        0.0000
     31 C          -3.8067    1.9954    1.4441 C.2     1  UNL1        0.0000
     32 C          -0.3542   -3.9152    0.1371 C.3     1  UNL1        0.0000
     33 C           0.8698   -4.7069   -0.4531 C.3     1  UNL1        0.0000
     34 C           1.4482   -5.5056    0.7253 C.3     1  UNL1        0.0000
     35 C           1.0791   -4.6674    1.9589 C.3     1  UNL1        0.0000
     36 C          -0.3562   -4.2286    1.6547 C.3     1  UNL1        0.0000
     37 C          -2.7397   -3.3900   -0.4399 C.2     1  UNL1        0.0000
     38 C          -3.9120   -4.1511   -0.9442 C.ar    1  UNL1        0.0000
     39 C          -5.2281   -3.7544   -1.1309 C.ar    1  UNL1        0.0000
     40 C          -6.1187   -4.7207   -1.6174 C.ar    1  UNL1        0.0000
     41 C          -5.6975   -6.0281   -1.8887 C.ar    1  UNL1        0.0000
     42 C          -4.3696   -6.4200   -1.6740 C.ar    1  UNL1        0.0000
     43 C          -3.4933   -5.4571   -1.2006 C.ar    1  UNL1        0.0000
     44 C          -2.0516   -5.5736   -0.8342 C.2     1  UNL1        0.0000
     45 C           4.5188   -0.4434   -0.7475 C.3     1  UNL1        0.0000
     46 C           5.0802   -1.1223   -2.0273 C.3     1  UNL1        0.0000
     47 C           5.4908    0.0332   -2.9495 C.3     1  UNL1        0.0000
     48 C           6.0223    1.0879   -1.9686 C.3     1  UNL1        0.0000
     49 C           5.0043    1.0499   -0.8238 C.3     1  UNL1        0.0000
     50 C           6.1254   -0.9271    1.2140 C.2     1  UNL1        0.0000
     51 C           6.1339   -1.9868    2.2661 C.ar    1  UNL1        0.0000
     52 C           7.0307   -2.2047    3.2993 C.ar    1  UNL1        0.0000
     53 C           6.7926   -3.3038    4.1348 C.ar    1  UNL1        0.0000
     54 C           5.6955   -4.1481    3.9251 C.ar    1  UNL1        0.0000
     55 C           4.7987   -3.9228    2.8729 C.ar    1  UNL1        0.0000
     56 C           5.0403   -2.8272    2.0584 C.ar    1  UNL1        0.0000
     57 C           4.3052   -2.3271    0.8683 C.2     1  UNL1        0.0000
     58 C           1.2739    4.0647   -1.6065 C.3     1  UNL1        0.0000
     59 C           0.8418    4.5015   -3.0295 C.3     1  UNL1        0.0000
     60 C           1.9849    4.0671   -3.9815 C.3     1  UNL1        0.0000
     61 C           3.1487    3.5973   -3.0742 C.3     1  UNL1        0.0000
     62 C           2.8212    4.1580   -1.6853 C.3     1  UNL1        0.0000
     63 C          -0.7190    4.9788   -0.4369 C.2     1  UNL1        0.0000
     64 C          -1.0029    5.5603    0.8985 C.ar    1  UNL1        0.0000
     65 C          -2.2104    5.8810    1.4994 C.ar    1  UNL1        0.0000
     66 C          -2.1598    6.3950    2.7998 C.ar    1  UNL1        0.0000
     67 C          -0.9382    6.5709    3.4635 C.ar    1  UNL1        0.0000
     68 C           0.2737    6.2347    2.8489 C.ar    1  UNL1        0.0000
     69 C           0.2117    5.7283    1.5597 C.ar    1  UNL1        0.0000
     70 C           1.3085    5.2501    0.6713 C.2     1  UNL1        0.0000
     71 H          -4.1524   -1.0031   -1.6955 H       1  UNL1        0.0000
     72 H          -5.5125    0.1008   -1.5404 H       1  UNL1        0.0000
     73 H          -5.1558    0.5462   -3.8106 H       1  UNL1        0.0000
     74 H          -3.4862   -0.0136   -3.7648 H       1  UNL1        0.0000
     75 H          -4.2895    2.7650   -3.6503 H       1  UNL1        0.0000
     76 H          -2.6746    2.1192   -3.3761 H       1  UNL1        0.0000
     77 H          -4.8348    2.7041   -1.3109 H       1  UNL1        0.0000
     78 H          -3.1176    3.0947   -1.2157 H       1  UNL1        0.0000
     79 H          -5.9873   -1.3075    3.5476 H       1  UNL1        0.0000
     80 H          -5.7884   -0.2579    5.8190 H       1  UNL1        0.0000
     81 H          -4.6461    1.9053    6.1047 H       1  UNL1        0.0000
     82 H          -3.6605    3.0995    4.1240 H       1  UNL1        0.0000
     83 H           0.5707   -5.3335   -1.2899 H       1  UNL1        0.0000
     84 H           1.6063   -3.9892   -0.8120 H       1  UNL1        0.0000
     85 H           2.5259   -5.6570    0.6170 H       1  UNL1        0.0000
     86 H           0.9641   -6.4864    0.7804 H       1  UNL1        0.0000
     87 H           1.1564   -5.2188    2.9016 H       1  UNL1        0.0000
     88 H           1.7266   -3.7875    2.0167 H       1  UNL1        0.0000
     89 H          -0.7033   -3.3773    2.2406 H       1  UNL1        0.0000
     90 H          -1.0390   -5.0687    1.8181 H       1  UNL1        0.0000
     91 H          -4.0331   -7.4334   -1.8638 H       1  UNL1        0.0000
     92 H           4.3575   -1.8098   -2.4660 H       1  UNL1        0.0000
     93 H           5.9678   -1.6930   -1.7362 H       1  UNL1        0.0000
     94 H           6.2242   -0.2721   -3.7013 H       1  UNL1        0.0000
     95 H           4.6105    0.4184   -3.4767 H       1  UNL1        0.0000
     96 H           7.0073    0.7947   -1.5907 H       1  UNL1        0.0000
     97 H           6.1091    2.0856   -2.4085 H       1  UNL1        0.0000
     98 H           5.3896    1.4046    0.1286 H       1  UNL1        0.0000
     99 H           4.1429    1.6691   -1.0823 H       1  UNL1        0.0000
    100 H           7.8794   -1.5459    3.4469 H       1  UNL1        0.0000
    101 H           7.4702   -3.5075    4.9578 H       1  UNL1        0.0000
    102 H           5.5405   -4.9928    4.5886 H       1  UNL1        0.0000
    103 H           3.9481   -4.5722    2.6990 H       1  UNL1        0.0000
    104 H           0.7391    5.5902   -3.0123 H       1  UNL1        0.0000
    105 H          -0.1258    4.0848   -3.2984 H       1  UNL1        0.0000
    106 H           1.6590    3.2627   -4.6439 H       1  UNL1        0.0000
    107 H           2.2911    4.9058   -4.6136 H       1  UNL1        0.0000
    108 H           4.1274    3.9378   -3.4231 H       1  UNL1        0.0000
    109 H           3.1758    2.5046   -3.0415 H       1  UNL1        0.0000
    110 H           3.3190    3.6519   -0.8592 H       1  UNL1        0.0000
    111 H           3.0901    5.2157   -1.6203 H       1  UNL1        0.0000
    112 H           1.2263    6.3541    3.3535 H       1  UNL1        0.0000
    113 O           2.4910    5.1838    0.9330 O.2     1  UNL1        0.0000
    114 O          -1.5026    4.6191   -1.2937 O.2     1  UNL1        0.0000
    115 O           3.3459   -2.8152    0.3014 O.2     1  UNL1        0.0000
    116 O           6.9635   -0.0698    1.0199 O.2     1  UNL1        0.0000
    117 O          -1.3693   -6.5790   -0.8114 O.2     1  UNL1        0.0000
    118 O          -2.6823   -2.2393   -0.0509 O.2     1  UNL1        0.0000
    119 O          -3.2110    3.0211    1.1900 O.2     1  UNL1        0.0000
    120 O          -5.3696   -1.0432    0.6667 O.2     1  UNL1        0.0000
    121 H          -5.5430   -2.7478   -0.8821 H       1  UNL1        0.0000
    122 H          -7.1581   -4.4537   -1.7799 H       1  UNL1        0.0000
    123 H          -6.4152   -6.7516   -2.2625 H       1  UNL1        0.0000
    124 H          -3.1476    5.7092    0.9853 H       1  UNL1        0.0000
    125 H          -3.0827    6.6572    3.3077 H       1  UNL1        0.0000
    126 H          -0.9345    6.9689    4.4735 H       1  UNL1        0.0000
@<TRIPOS>BOND
     1     1     9    1
     2     2     8    1
     3     2    11    1
     4     2    10    1
     5     2     1    1
     6     3     7    1
     7     4    14    1
     8     5    12    1
     9     6    32    1
    10     6     9    1
    11     7     1    1
    12     8     3    1
    13    10     6    1
    14    11     5    1
    15    12     1    1
    16    13     2    1
    17    13     4    1
    18    14     1    1
    19    15    24   am
    20    15    31   am
    21    16    37   am
    22    16    32    1
    23    17    57   am
    24    17    50   am
    25    18    63   am
    26    18    70   am
    27    19     3    1
    28    19    15    1
    29    20    71    1
    30    20    72    1
    31    20    19    1
    32    21    22    1
    33    21    20    1
    34    22    23    1
    35    23    77    1
    36    23    78    1
    37    23    19    1
    38    24    25    1
    39    25    30   ar
    40    25    26   ar
    41    26    27   ar
    42    27    28   ar
    43    27    80    1
    44    28    81    1
    45    29    82    1
    46    29    28   ar
    47    30    29   ar
    48    31    30    1
    49    32    36    1
    50    33    32    1
    51    33    34    1
    52    34    86    1
    53    34    35    1
    54    35    88    1
    55    35    87    1
    56    36    90    1
    57    36    35    1
    58    36    89    1
    59    37   118    2
    60    38    37    1
    61    39    38   ar
    62    39   121    1
    63    40    39   ar
    64    41    42   ar
    65    41    40   ar
    66    42    43   ar
    67    43    38   ar
    68    43    44    1
    69    44   117    2
    70    44    16   am
    71    45     5    1
    72    45    17    1
    73    46    93    1
    74    46    45    1
    75    47    46    1
    76    47    48    1
    77    48    96    1
    78    48    49    1
    79    49    45    1
    80    49    98    1
    81    50    51    1
    82    51    52   ar
    83    52   100    1
    84    52    53   ar
    85    53   101    1
    86    54    53   ar
    87    54   102    1
    88    55    54   ar
    89    56    51   ar
    90    56    55   ar
    91    57    56    1
    92    58     4    1
    93    58    18    1
    94    59   104    1
    95    59    58    1
    96    60    61    1
    97    60    59    1
    98    61   109    1
    99    61    62    1
   100    62   111    1
   101    62    58    1
   102    62   110    1
   103    63    64    1
   104    64    65   ar
   105    64    69   ar
   106    65    66   ar
   107    66   125    1
   108    66    67   ar
   109    67   126    1
   110    68   112    1
   111    68    67   ar
   112    69    68   ar
   113    70   113    2
   114    70    69    1
   115    73    21    1
   116    74    21    1
   117    75    22    1
   118    76    22    1
   119    79    26    1
   120    83    33    1
   121    84    33    1
   122    85    34    1
   123    91    42    1
   124    92    46    1
   125    94    47    1
   126    95    47    1
   127    97    48    1
   128    99    49    1
   129   103    55    1
   130   105    59    1
   131   106    60    1
   132   107    60    1
   133   108    61    1
   134   114    63    2
   135   115    57    2
   136   116    50    2
   137   119    31    2
   138   120    24    2
   139   122    40    1
   140   123    41    1
   141   124    65    1
