@<TRIPOS>MOLECULE
RhRh_PhPhtol-O2C4_15_sp
 162 177 0 0 0
SMALL
GASTEIGER

@<TRIPOS>ATOM
      1 Rh         -0.0013   -0.0792    1.1516 Rh      1  UNL1        0.0000
      2 Rh         -0.0248   -0.0824   -1.2315 Rh      1  UNL1        0.0000
      3 C           1.9790    1.6611    0.0137 C.3     1  UNL1        0.0000
      4 C          -1.7072    1.9472   -0.0603 C.3     1  UNL1        0.0000
      5 C          -2.0418   -1.7592   -0.0146 C.3     1  UNL1        0.0000
      6 C           1.7230   -2.0741   -0.0727 C.3     1  UNL1        0.0000
      7 O          -1.4236    1.4187    1.0607 O.3     1  UNL1        0.0000
      8 O          -1.3565    1.4794   -1.1883 O.3     1  UNL1        0.0000
      9 O          -1.4489   -1.5440    1.0905 O.3     1  UNL1        0.0000
     10 O          -1.6288   -1.3606   -1.1473 O.3     1  UNL1        0.0000
     11 O           1.4723   -1.5306    1.0472 O.3     1  UNL1        0.0000
     12 O           1.2697   -1.6673   -1.1891 O.3     1  UNL1        0.0000
     13 O           1.4209    1.3917    1.1252 O.3     1  UNL1        0.0000
     14 O           1.5841    1.2319   -1.1137 O.3     1  UNL1        0.0000
     15 C          -2.5730    3.2457   -0.0679 C.3     1  UNL1        0.0000
     16 C          -2.8917    3.5664    1.4096 C.ar    1  UNL1        0.0000
     17 C          -4.1685    3.5031    1.9672 C.ar    1  UNL1        0.0000
     18 C          -4.3755    3.8235    3.3121 C.ar    1  UNL1        0.0000
     19 C          -3.3085    4.2113    4.1185 C.ar    1  UNL1        0.0000
     20 C          -2.0252    4.2750    3.5685 C.ar    1  UNL1        0.0000
     21 C          -1.8238    3.9529    2.2315 C.ar    1  UNL1        0.0000
     22 C          -1.7906    4.4355   -0.6991 C.ar    1  UNL1        0.0000
     23 C          -0.6730    4.2219   -1.5179 C.ar    1  UNL1        0.0000
     24 C           0.0259    5.2721   -2.1127 C.ar    1  UNL1        0.0000
     25 C          -0.3835    6.5808   -1.8953 C.ar    1  UNL1        0.0000
     26 C          -1.5121    6.8096   -1.1130 C.ar    1  UNL1        0.0000
     27 C          -2.2409    5.7704   -0.5189 C.ar    1  UNL1        0.0000
     28 C          -3.8148    2.9044   -0.9204 C.ar    1  UNL1        0.0000
     29 C          -4.1662    3.6229   -2.0661 C.ar    1  UNL1        0.0000
     30 C          -5.2940    3.2668   -2.8094 C.ar    1  UNL1        0.0000
     31 C          -6.0868    2.1874   -2.4231 C.ar    1  UNL1        0.0000
     32 C          -5.7367    1.4552   -1.2875 C.ar    1  UNL1        0.0000
     33 C          -4.6056    1.8077   -0.5558 C.ar    1  UNL1        0.0000
     34 C          -3.3542   -2.5950    0.0361 C.3     1  UNL1        0.0000
     35 C          -3.8551   -2.7540   -1.4176 C.ar    1  UNL1        0.0000
     36 C          -3.9322   -3.9718   -2.0938 C.ar    1  UNL1        0.0000
     37 C          -4.4309   -4.0318   -3.3980 C.ar    1  UNL1        0.0000
     38 C          -4.8610   -2.8757   -4.0445 C.ar    1  UNL1        0.0000
     39 C          -4.7847   -1.6510   -3.3758 C.ar    1  UNL1        0.0000
     40 C          -4.2845   -1.5965   -2.0804 C.ar    1  UNL1        0.0000
     41 C          -4.4458   -1.8544    0.8639 C.ar    1  UNL1        0.0000
     42 C          -5.7941   -2.2986    0.8356 C.ar    1  UNL1        0.0000
     43 C          -6.7489   -1.5947    1.5816 C.ar    1  UNL1        0.0000
     44 C          -6.4234   -0.4855    2.3580 C.ar    1  UNL1        0.0000
     45 C          -5.0987   -0.0722    2.4123 C.ar    1  UNL1        0.0000
     46 C          -4.1315   -0.7547    1.6739 C.ar    1  UNL1        0.0000
     47 C          -2.9420   -3.9209    0.7072 C.ar    1  UNL1        0.0000
     48 C          -3.4971   -4.3558    1.9131 C.ar    1  UNL1        0.0000
     49 C          -3.0796   -5.5538    2.4961 C.ar    1  UNL1        0.0000
     50 C          -2.0956   -6.3295    1.8868 C.ar    1  UNL1        0.0000
     51 C          -1.5184   -5.8926    0.6938 C.ar    1  UNL1        0.0000
     52 C          -1.9333   -4.6952    0.1176 C.ar    1  UNL1        0.0000
     53 C           2.6868   -3.2919   -0.1197 C.3     1  UNL1        0.0000
     54 C           1.9674   -4.5495   -0.6782 C.ar    1  UNL1        0.0000
     55 C           1.0879   -4.4807   -1.7675 C.ar    1  UNL1        0.0000
     56 C           0.5614   -5.6405   -2.3357 C.ar    1  UNL1        0.0000
     57 C           0.9164   -6.8961   -1.8428 C.ar    1  UNL1        0.0000
     58 C           1.7985   -6.9765   -0.7659 C.ar    1  UNL1        0.0000
     59 C           2.3144   -5.8159   -0.1888 C.ar    1  UNL1        0.0000
     60 C           3.8207   -2.9115   -1.1056 C.ar    1  UNL1        0.0000
     61 C           4.4335   -3.8648   -1.9238 C.ar    1  UNL1        0.0000
     62 C           5.5199   -3.5170   -2.7294 C.ar    1  UNL1        0.0000
     63 C           6.0161   -2.2148   -2.7245 C.ar    1  UNL1        0.0000
     64 C           5.4102   -1.2560   -1.9115 C.ar    1  UNL1        0.0000
     65 C           4.3187   -1.6037   -1.1203 C.ar    1  UNL1        0.0000
     66 C           3.2466   -3.5663    1.2967 C.ar    1  UNL1        0.0000
     67 C           2.3997   -3.8960    2.3822 C.ar    1  UNL1        0.0000
     68 C           2.9826   -4.1538    3.6295 C.ar    1  UNL1        0.0000
     69 C           4.3591   -4.1061    3.8318 C.ar    1  UNL1        0.0000
     70 C           5.1899   -3.8047    2.7576 C.ar    1  UNL1        0.0000
     71 C           4.6304   -3.5392    1.5087 C.ar    1  UNL1        0.0000
     72 C           3.2457    2.5732    0.0780 C.3     1  UNL1        0.0000
     73 C           3.5102    3.0844   -1.3538 C.ar    1  UNL1        0.0000
     74 C           3.4284    4.4311   -1.7091 C.ar    1  UNL1        0.0000
     75 C           3.7109    4.8448   -3.0140 C.ar    1  UNL1        0.0000
     76 C           4.0731    3.9160   -3.9856 C.ar    1  UNL1        0.0000
     77 C           4.1515    2.5637   -3.6411 C.ar    1  UNL1        0.0000
     78 C           3.8725    2.1562   -2.3412 C.ar    1  UNL1        0.0000
     79 C           2.9331    3.7094    1.0734 C.ar    1  UNL1        0.0000
     80 C           1.7520    4.4462    0.9162 C.ar    1  UNL1        0.0000
     81 C           1.4378    5.5011    1.7676 C.ar    1  UNL1        0.0000
     82 C           2.3016    5.8326    2.8136 C.ar    1  UNL1        0.0000
     83 C           3.4725    5.0987    2.9888 C.ar    1  UNL1        0.0000
     84 C           3.7867    4.0447    2.1264 C.ar    1  UNL1        0.0000
     85 C           4.4478    1.7253    0.5947 C.ar    1  UNL1        0.0000
     86 C           5.7935    2.1039    0.3476 C.ar    1  UNL1        0.0000
     87 C           6.8172    1.2940    0.8609 C.ar    1  UNL1        0.0000
     88 C           6.5645    0.1642    1.6332 C.ar    1  UNL1        0.0000
     89 C           5.2486   -0.1632    1.9328 C.ar    1  UNL1        0.0000
     90 C           4.2138    0.6131    1.4166 C.ar    1  UNL1        0.0000
     91 C          -3.4899    6.1651    0.2377 C.3     1  UNL1        0.0000
     92 C          -6.2846   -3.5044    0.0668 C.3     1  UNL1        0.0000
     93 C           0.8954   -4.0032    2.2997 C.3     1  UNL1        0.0000
     94 C           6.2255    3.3631   -0.3731 C.3     1  UNL1        0.0000
     95 H          -5.0179    3.2280    1.3559 H       1  UNL1        0.0000
     96 H          -5.3806    3.7774    3.7211 H       1  UNL1        0.0000
     97 H          -3.4719    4.4636    5.1618 H       1  UNL1        0.0000
     98 H          -1.1776    4.5736    4.1780 H       1  UNL1        0.0000
     99 H          -0.8224    3.9960    1.8224 H       1  UNL1        0.0000
    100 H          -0.3291    3.2173   -1.7085 H       1  UNL1        0.0000
    101 H           0.8925    5.0505   -2.7252 H       1  UNL1        0.0000
    102 H           0.1516    7.4142   -2.3403 H       1  UNL1        0.0000
    103 H          -1.8604    7.8280   -0.9641 H       1  UNL1        0.0000
    104 H          -3.5583    4.4589   -2.3882 H       1  UNL1        0.0000
    105 H          -5.5480    3.8392   -3.6964 H       1  UNL1        0.0000
    106 H          -6.9655    1.9172   -3.0007 H       1  UNL1        0.0000
    107 H          -6.3295    0.6036   -0.9692 H       1  UNL1        0.0000
    108 H          -4.3415    1.2204    0.3124 H       1  UNL1        0.0000
    109 H          -3.6322   -4.8885   -1.6027 H       1  UNL1        0.0000
    110 H          -4.4906   -4.9924   -3.9009 H       1  UNL1        0.0000
    111 H          -5.2528   -2.9260   -5.0559 H       1  UNL1        0.0000
    112 H          -5.1129   -0.7347   -3.8571 H       1  UNL1        0.0000
    113 H          -4.2238   -0.6402   -1.5787 H       1  UNL1        0.0000
    114 H          -7.7781   -1.9418    1.5521 H       1  UNL1        0.0000
    115 H          -7.1937    0.0341    2.9196 H       1  UNL1        0.0000
    116 H          -4.8025    0.7876    3.0045 H       1  UNL1        0.0000
    117 H          -3.1148   -0.4022    1.7381 H       1  UNL1        0.0000
    118 H          -4.2550   -3.7580    2.4037 H       1  UNL1        0.0000
    119 H          -3.5268   -5.8748    3.4321 H       1  UNL1        0.0000
    120 H          -1.7725   -7.2612    2.3412 H       1  UNL1        0.0000
    121 H          -0.7334   -6.4670    0.2167 H       1  UNL1        0.0000
    122 H          -1.4613   -4.3595   -0.7985 H       1  UNL1        0.0000
    123 H           0.8219   -3.5177   -2.1798 H       1  UNL1        0.0000
    124 H          -0.1256   -5.5558   -3.1723 H       1  UNL1        0.0000
    125 H           0.5116   -7.7980   -2.2915 H       1  UNL1        0.0000
    126 H           2.0906   -7.9441   -0.3690 H       1  UNL1        0.0000
    127 H           3.0030   -5.8975    0.6426 H       1  UNL1        0.0000
    128 H           4.0708   -4.8849   -1.9332 H       1  UNL1        0.0000
    129 H           5.9792   -4.2734   -3.3588 H       1  UNL1        0.0000
    130 H           6.8665   -1.9494   -3.3451 H       1  UNL1        0.0000
    131 H           5.7898   -0.2402   -1.8758 H       1  UNL1        0.0000
    132 H           3.8742   -0.8500   -0.4866 H       1  UNL1        0.0000
    133 H           2.3275   -4.4049    4.4598 H       1  UNL1        0.0000
    134 H           4.7742   -4.3134    4.8135 H       1  UNL1        0.0000
    135 H           6.2682   -3.7732    2.8811 H       1  UNL1        0.0000
    136 H           5.2897   -3.2999    0.6858 H       1  UNL1        0.0000
    137 H           3.1629    5.1729   -0.9674 H       1  UNL1        0.0000
    138 H           3.6515    5.9004   -3.2621 H       1  UNL1        0.0000
    139 H           4.2949    4.2379   -4.9985 H       1  UNL1        0.0000
    140 H           4.4322    1.8238   -4.3845 H       1  UNL1        0.0000
    141 H           3.9367    1.1058   -2.0904 H       1  UNL1        0.0000
    142 H           1.0724    4.2045    0.1102 H       1  UNL1        0.0000
    143 H           0.5192    6.0570    1.6076 H       1  UNL1        0.0000
    144 H           2.0623    6.6526    3.4838 H       1  UNL1        0.0000
    145 H           4.1503    5.3399    3.8021 H       1  UNL1        0.0000
    146 H           4.6957    3.4790    2.2882 H       1  UNL1        0.0000
    147 H           7.8451    1.5823    0.6590 H       1  UNL1        0.0000
    148 H           7.3873   -0.4351    2.0108 H       1  UNL1        0.0000
    149 H           5.0123   -1.0245    2.5462 H       1  UNL1        0.0000
    150 H           3.2026    0.3318    1.6669 H       1  UNL1        0.0000
    151 H          -4.3294    5.5043    0.0166 H       1  UNL1        0.0000
    152 H          -3.3396    6.1457    1.3200 H       1  UNL1        0.0000
    153 H          -3.7805    7.1805   -0.0446 H       1  UNL1        0.0000
    154 H          -5.6006   -4.3505    0.1443 H       1  UNL1        0.0000
    155 H          -7.2544   -3.8199    0.4606 H       1  UNL1        0.0000
    156 H          -6.4074   -3.2845   -0.9970 H       1  UNL1        0.0000
    157 H           0.5118   -4.0470    1.2854 H       1  UNL1        0.0000
    158 H           0.5514   -4.9082    2.8086 H       1  UNL1        0.0000
    159 H           0.4180   -3.1468    2.7841 H       1  UNL1        0.0000
    160 H           6.1292    3.2812   -1.4584 H       1  UNL1        0.0000
    161 H           5.6396    4.2302   -0.0637 H       1  UNL1        0.0000
    162 H           7.2740    3.5694   -0.1425 H       1  UNL1        0.0000
@<TRIPOS>BOND
     1     2    12    1
     2     2     8    1
     3     2    10    1
     4     2    14    1
     5     2     1    1
     6     3    72    1
     7     3    13    1
     8     4     7    1
     9     5    34    1
    10     5     9    1
    11     6    11    1
    12     7     1    1
    13     8     4    1
    14     9     1    1
    15    10     5    1
    16    11     1    1
    17    12     6    1
    18    13     1    1
    19    14     3    1
    20    15     4    1
    21    15    16    1
    22    16    17   ar
    23    16    21   ar
    24    17    18   ar
    25    18    96    1
    26    18    19   ar
    27    19    97    1
    28    20    19   ar
    29    20    98    1
    30    21    20   ar
    31    22    27   ar
    32    22    15    1
    33    23    22   ar
    34    24    25   ar
    35    24    23   ar
    36    25    26   ar
    37    26   103    1
    38    26    27   ar
    39    27    91    1
    40    28    33   ar
    41    28    15    1
    42    29    28   ar
    43    30    31   ar
    44    30    29   ar
    45    31    32   ar
    46    32   107    1
    47    32    33   ar
    48    33   108    1
    49    34    47    1
    50    34    41    1
    51    35    34    1
    52    36   109    1
    53    36    35   ar
    54    37    36   ar
    55    38    37   ar
    56    38    39   ar
    57    39    40   ar
    58    40   113    1
    59    40    35   ar
    60    41    46   ar
    61    42    41   ar
    62    42    43   ar
    63    43    44   ar
    64    44    45   ar
    65    44   115    1
    66    45   116    1
    67    46   117    1
    68    46    45   ar
    69    47    48   ar
    70    48   118    1
    71    48    49   ar
    72    49   119    1
    73    50   120    1
    74    50    49   ar
    75    51    50   ar
    76    52    51   ar
    77    52    47   ar
    78    53     6    1
    79    53    66    1
    80    54    59   ar
    81    54    53    1
    82    55    54   ar
    83    56    57   ar
    84    56    55   ar
    85    57    58   ar
    86    58   126    1
    87    58    59   ar
    88    59   127    1
    89    60    53    1
    90    61    60   ar
    91    62    63   ar
    92    62    61   ar
    93    63    64   ar
    94    64   131    1
    95    64    65   ar
    96    65    60   ar
    97    65   132    1
    98    66    71   ar
    99    66    67   ar
   100    67    68   ar
   101    68    69   ar
   102    68   133    1
   103    69   134    1
   104    70   135    1
   105    70    69   ar
   106    71    70   ar
   107    72    85    1
   108    72    79    1
   109    73    72    1
   110    74    73   ar
   111    74   137    1
   112    75    74   ar
   113    76    77   ar
   114    76    75   ar
   115    77    78   ar
   116    78   141    1
   117    78    73   ar
   118    79    84   ar
   119    80    79   ar
   120    80    81   ar
   121    81    82   ar
   122    82    83   ar
   123    82   144    1
   124    83   145    1
   125    84   146    1
   126    84    83   ar
   127    85    90   ar
   128    86    85   ar
   129    86    87   ar
   130    87    88   ar
   131    88    89   ar
   132    88   148    1
   133    89   149    1
   134    90   150    1
   135    90    89   ar
   136    91   152    1
   137    92   154    1
   138    92   155    1
   139    92    42    1
   140    93    67    1
   141    93   159    1
   142    93   158    1
   143    94   162    1
   144    94   161    1
   145    94    86    1
   146    95    17    1
   147    99    21    1
   148   100    23    1
   149   101    24    1
   150   102    25    1
   151   104    29    1
   152   105    30    1
   153   106    31    1
   154   110    37    1
   155   111    38    1
   156   112    39    1
   157   114    43    1
   158   121    51    1
   159   122    52    1
   160   123    55    1
   161   124    56    1
   162   125    57    1
   163   128    61    1
   164   129    62    1
   165   130    63    1
   166   136    71    1
   167   138    75    1
   168   139    76    1
   169   140    77    1
   170   142    80    1
   171   143    81    1
   172   147    87    1
   173   151    91    1
   174   153    91    1
   175   156    92    1
   176   157    93    1
   177   160    94    1
