@<TRIPOS>MOLECULE
RhRh_ACB4_8_sp
 114 129 0 0 0
SMALL
GASTEIGER

@<TRIPOS>ATOM
      1 Rh          1.1230   -0.4789   -1.1937 Rh      1  UNL1        0.0000
      2 Rh          0.0045   -0.4162    0.9226 Rh      1  UNL1        0.0000
      3 C          -1.2054    1.2279   -1.1114 C.3     1  UNL1        0.0000
      4 C           2.4104   -2.0088    0.8861 C.3     1  UNL1        0.0000
      5 C          -0.9883   -2.4266   -0.8857 C.3     1  UNL1        0.0000
      6 C           2.0989    1.5509    0.5964 C.3     1  UNL1        0.0000
      7 O           2.3308    1.0425   -0.5434 O.3     1  UNL1        0.0000
      8 O           1.1736    1.2088    1.3984 O.3     1  UNL1        0.0000
      9 O           2.4743   -1.7810   -0.3634 O.3     1  UNL1        0.0000
     10 O           1.4845   -1.6430    1.6709 O.3     1  UNL1        0.0000
     11 O          -0.1393   -2.0175   -1.7355 O.3     1  UNL1        0.0000
     12 O          -1.0985   -2.0333    0.3185 O.3     1  UNL1        0.0000
     13 O          -0.2580    0.8822   -1.8829 O.3     1  UNL1        0.0000
     14 O          -1.3991    0.8114    0.0729 O.3     1  UNL1        0.0000
     15 N           2.1759    3.9249    0.9842 N.am    1  UNL1        0.0000
     16 N           4.7539   -2.5335    0.6820 N.am    1  UNL1        0.0000
     17 N          -3.0562   -3.5868   -0.3906 N.am    1  UNL1        0.0000
     18 N          -3.5245    1.9774   -1.2238 N.am    1  UNL1        0.0000
     19 C           2.9880    2.7024    1.0544 C.3     1  UNL1        0.0000
     20 C           4.3822    2.8371    0.3806 C.3     1  UNL1        0.0000
     21 C           5.0313    2.9861    1.7773 C.3     1  UNL1        0.0000
     22 C           3.7158    2.4851    2.4178 C.3     1  UNL1        0.0000
     23 C           1.9154    4.5797   -0.2412 C.2     1  UNL1        0.0000
     24 C           0.9211    5.6442    0.0611 C.ar    1  UNL1        0.0000
     25 C           0.3424    6.5857   -0.7757 C.ar    1  UNL1        0.0000
     26 C          -0.6374    7.4182   -0.2224 C.ar    1  UNL1        0.0000
     27 C          -1.0137    7.2980    1.1218 C.ar    1  UNL1        0.0000
     28 C          -0.4182    6.3460    1.9578 C.ar    1  UNL1        0.0000
     29 C           0.5532    5.5298    1.3994 C.ar    1  UNL1        0.0000
     30 C           1.3279    4.4129    2.0126 C.2     1  UNL1        0.0000
     31 C           3.5699   -2.8109    1.4777 C.3     1  UNL1        0.0000
     32 C           3.1800   -4.3038    1.7191 C.3     1  UNL1        0.0000
     33 C           2.8783   -3.9484    3.1960 C.3     1  UNL1        0.0000
     34 C           3.7052   -2.6509    3.0159 C.3     1  UNL1        0.0000
     35 C           5.1787   -3.2773   -0.4421 C.2     1  UNL1        0.0000
     36 C           6.1724   -2.4096   -1.1405 C.ar    1  UNL1        0.0000
     37 C           6.9358   -2.6600   -2.2696 C.ar    1  UNL1        0.0000
     38 C           7.7685   -1.6296   -2.7243 C.ar    1  UNL1        0.0000
     39 C           7.8235   -0.3967   -2.0620 C.ar    1  UNL1        0.0000
     40 C           7.0484   -0.1538   -0.9214 C.ar    1  UNL1        0.0000
     41 C           6.2295   -1.1816   -0.4798 C.ar    1  UNL1        0.0000
     42 C           5.2737   -1.2289    0.6560 C.2     1  UNL1        0.0000
     43 C          -1.9627   -3.5011   -1.3519 C.3     1  UNL1        0.0000
     44 C          -1.3334   -4.8746   -1.7578 C.3     1  UNL1        0.0000
     45 C          -2.2459   -4.9024   -3.0054 C.3     1  UNL1        0.0000
     46 C          -2.4773   -3.3845   -2.8212 C.3     1  UNL1        0.0000
     47 C          -3.1046   -4.4116    0.7562 C.2     1  UNL1        0.0000
     48 C          -4.2040   -3.8615    1.6022 C.ar    1  UNL1        0.0000
     49 C          -4.7199   -4.3241    2.8028 C.ar    1  UNL1        0.0000
     50 C          -5.7397   -3.5695    3.3963 C.ar    1  UNL1        0.0000
     51 C          -6.2121   -2.3937    2.7989 C.ar    1  UNL1        0.0000
     52 C          -5.6822   -1.9330    1.5879 C.ar    1  UNL1        0.0000
     53 C          -4.6774   -2.6923    1.0088 C.ar    1  UNL1        0.0000
     54 C          -3.8982   -2.4637   -0.2327 C.2     1  UNL1        0.0000
     55 C          -2.1641    2.3143   -1.5985 C.3     1  UNL1        0.0000
     56 C          -1.9133    2.7630   -3.0611 C.3     1  UNL1        0.0000
     57 C          -0.9760    3.8766   -2.5273 C.3     1  UNL1        0.0000
     58 C          -1.6294    3.7069   -1.1342 C.3     1  UNL1        0.0000
     59 C          -4.3482    1.1497   -2.0144 C.2     1  UNL1        0.0000
     60 C          -5.6153    0.9935   -1.2418 C.ar    1  UNL1        0.0000
     61 C          -6.7760    0.3067   -1.5597 C.ar    1  UNL1        0.0000
     62 C          -7.8210    0.3416   -0.6284 C.ar    1  UNL1        0.0000
     63 C          -7.6925    1.0443    0.5777 C.ar    1  UNL1        0.0000
     64 C          -6.5112    1.7285    0.8910 C.ar    1  UNL1        0.0000
     65 C          -5.4838    1.6862   -0.0398 C.ar    1  UNL1        0.0000
     66 C          -4.1274    2.3086    0.0039 C.2     1  UNL1        0.0000
     67 H           4.6402    1.8950   -0.1022 H       1  UNL1        0.0000
     68 H           4.4918    3.6477   -0.3365 H       1  UNL1        0.0000
     69 H           5.2530    4.0266    2.0304 H       1  UNL1        0.0000
     70 H           5.9160    2.3749    1.9662 H       1  UNL1        0.0000
     71 H           3.3067    3.0236    3.2677 H       1  UNL1        0.0000
     72 H           3.7514    1.4196    2.6434 H       1  UNL1        0.0000
     73 H          -1.7843    7.9514    1.5181 H       1  UNL1        0.0000
     74 H          -0.7065    6.2344    2.9971 H       1  UNL1        0.0000
     75 H           2.3801   -4.7058    1.0955 H       1  UNL1        0.0000
     76 H           4.0589   -4.9383    1.6104 H       1  UNL1        0.0000
     77 H           1.8211   -3.7315    3.3584 H       1  UNL1        0.0000
     78 H           3.2214   -4.6588    3.9510 H       1  UNL1        0.0000
     79 H           4.7503   -2.7813    3.3051 H       1  UNL1        0.0000
     80 H           3.3173   -1.7246    3.4364 H       1  UNL1        0.0000
     81 H           8.3789   -1.7849   -3.6082 H       1  UNL1        0.0000
     82 H           8.4748    0.3831   -2.4434 H       1  UNL1        0.0000
     83 H           7.0771    0.7986   -0.4032 H       1  UNL1        0.0000
     84 H          -0.2871   -4.7110   -2.0250 H       1  UNL1        0.0000
     85 H          -1.4088   -5.6717   -1.0234 H       1  UNL1        0.0000
     86 H          -1.7961   -5.2299   -3.9452 H       1  UNL1        0.0000
     87 H          -3.1564   -5.4817   -2.8293 H       1  UNL1        0.0000
     88 H          -3.4817   -2.9815   -2.9386 H       1  UNL1        0.0000
     89 H          -1.7777   -2.7821   -3.4011 H       1  UNL1        0.0000
     90 H          -4.3379   -5.2304    3.2597 H       1  UNL1        0.0000
     91 H          -6.1685   -3.8964    4.3384 H       1  UNL1        0.0000
     92 H          -6.9991   -1.8276    3.2873 H       1  UNL1        0.0000
     93 H          -6.0344   -1.0216    1.1216 H       1  UNL1        0.0000
     94 H          -1.5024    2.0099   -3.7301 H       1  UNL1        0.0000
     95 H          -2.8334    3.1675   -3.4862 H       1  UNL1        0.0000
     96 H           0.0733    3.5771   -2.5328 H       1  UNL1        0.0000
     97 H          -1.0660    4.8620   -2.9893 H       1  UNL1        0.0000
     98 H          -2.4603    4.3945   -0.9750 H       1  UNL1        0.0000
     99 H          -1.0072    3.7091   -0.2406 H       1  UNL1        0.0000
    100 H          -6.8581   -0.2385   -2.4934 H       1  UNL1        0.0000
    101 H          -6.3931    2.2721    1.8222 H       1  UNL1        0.0000
    102 O           4.9460   -0.3377    1.4183 O.2     1  UNL1        0.0000
    103 O           4.7994   -4.3858   -0.7529 O.2     1  UNL1        0.0000
    104 O          -2.3935   -5.3647    0.9991 O.2     1  UNL1        0.0000
    105 O          -3.9167   -1.5054   -0.9788 O.2     1  UNL1        0.0000
    106 O          -3.6398    2.9811    0.8884 O.2     1  UNL1        0.0000
    107 O          -4.0582    0.7022   -3.1027 O.2     1  UNL1        0.0000
    108 O           1.2534    4.0044    3.1507 O.2     1  UNL1        0.0000
    109 O           2.3923    4.2897   -1.3204 O.2     1  UNL1        0.0000
    110 H           0.6341    6.6562   -1.8176 H       1  UNL1        0.0000
    111 H          -1.1200    8.1654   -0.8444 H       1  UNL1        0.0000
    112 H           6.8780   -3.6159   -2.7787 H       1  UNL1        0.0000
    113 H          -8.7461   -0.1851   -0.8401 H       1  UNL1        0.0000
    114 H          -8.5213    1.0539    1.2788 H       1  UNL1        0.0000
@<TRIPOS>BOND
     1     1     7    1
     2     1     9    1
     3     1     2    1
     4     2     8    1
     5     2    10    1
     6     3    14    1
     7     4    31    1
     8     4    10    1
     9     5    12    1
    10     6    19    1
    11     6     8    1
    12     7     6    1
    13     9     4    1
    14    11     1    1
    15    11     5    1
    16    12     2    1
    17    13     1    1
    18    13     3    1
    19    14     2    1
    20    15    19    1
    21    15    30   am
    22    16    31    1
    23    17    54   am
    24    17    47   am
    25    18    66   am
    26    19    22    1
    27    20    19    1
    28    20    21    1
    29    21    70    1
    30    21    69    1
    31    21    22    1
    32    22    72    1
    33    22    71    1
    34    23    24    1
    35    23    15   am
    36    24    29   ar
    37    25    26   ar
    38    25    24   ar
    39    26    27   ar
    40    27    73    1
    41    27    28   ar
    42    28    74    1
    43    29    28   ar
    44    29    30    1
    45    30   108    2
    46    31    32    1
    47    31    34    1
    48    32    33    1
    49    33    77    1
    50    33    78    1
    51    34    33    1
    52    34    79    1
    53    34    80    1
    54    35    16   am
    55    36    41   ar
    56    36    35    1
    57    37    36   ar
    58    38    37   ar
    59    38    39   ar
    60    39    40   ar
    61    40    41   ar
    62    40    83    1
    63    41    42    1
    64    42    16   am
    65    42   102    2
    66    43     5    1
    67    43    17    1
    68    44    43    1
    69    44    85    1
    70    45    87    1
    71    45    46    1
    72    45    44    1
    73    46    43    1
    74    47   104    2
    75    47    48    1
    76    48    49   ar
    77    49    90    1
    78    49    50   ar
    79    50    91    1
    80    51    92    1
    81    51    50   ar
    82    52    51   ar
    83    53    52   ar
    84    53    48   ar
    85    54    53    1
    86    55    18    1
    87    55    58    1
    88    55     3    1
    89    56    57    1
    90    56    55    1
    91    57    58    1
    92    58    98    1
    93    58    99    1
    94    59    60    1
    95    59    18   am
    96    60    65   ar
    97    61    60   ar
    98    61    62   ar
    99    62    63   ar
   100    63    64   ar
   101    63   114    1
   102    64   101    1
   103    65    66    1
   104    65    64   ar
   105    66   106    2
   106    67    20    1
   107    68    20    1
   108    75    32    1
   109    76    32    1
   110    81    38    1
   111    82    39    1
   112    84    44    1
   113    86    45    1
   114    88    46    1
   115    89    46    1
   116    93    52    1
   117    94    56    1
   118    95    56    1
   119    96    57    1
   120    97    57    1
   121   100    61    1
   122   103    35    2
   123   105    54    2
   124   107    59    2
   125   109    23    2
   126   110    25    1
   127   111    26    1
   128   112    37    1
   129   113    62    1
