@<TRIPOS>MOLECULE
RhRh_ACH4_2_sp
 138 153 0 0 0
SMALL
GASTEIGER

@<TRIPOS>ATOM
      1 Rh         -0.0000   -0.0000   -1.5997 Rh      1  UNL1        0.0000
      2 Rh          0.0001   -0.0000    0.7857 Rh      1  UNL1        0.0000
      3 C          -1.9670    1.7336   -0.4017 C.3     1  UNL1        0.0000
      4 C          -1.7114   -1.9963   -0.4152 C.3     1  UNL1        0.0000
      5 C           1.9671   -1.7336   -0.4019 C.3     1  UNL1        0.0000
      6 C           1.7115    1.9962   -0.4153 C.3     1  UNL1        0.0000
      7 O           1.2064    1.6571   -1.5298 O.3     1  UNL1        0.0000
      8 O           1.4566    1.4651    0.7092 O.3     1  UNL1        0.0000
      9 O           1.6485   -1.2317   -1.5211 O.3     1  UNL1        0.0000
     10 O           1.3954   -1.5062    0.7107 O.3     1  UNL1        0.0000
     11 O          -1.4564   -1.4651    0.7093 O.3     1  UNL1        0.0000
     12 O          -1.2064   -1.6571   -1.5296 O.3     1  UNL1        0.0000
     13 O          -1.3952    1.5062    0.7108 O.3     1  UNL1        0.0000
     14 O          -1.6485    1.2317   -1.5209 O.3     1  UNL1        0.0000
     15 N           4.0817    2.5380   -0.5347 N.am    1  UNL1        0.0000
     16 N           3.8913   -2.5450    0.8121 N.am    1  UNL1        0.0000
     17 N          -4.0816   -2.5380   -0.5348 N.am    1  UNL1        0.0000
     18 N          -3.8912    2.5449    0.8123 N.am    1  UNL1        0.0000
     19 C           2.7281    3.1643   -0.4389 C.3     1  UNL1        0.0000
     20 C           2.5446    4.0158    0.8369 C.3     1  UNL1        0.0000
     21 C           3.4179    5.2758    0.8560 C.3     1  UNL1        0.0000
     22 C           3.2260    6.1322   -0.3999 C.3     1  UNL1        0.0000
     23 C           3.4112    5.2895   -1.6658 C.3     1  UNL1        0.0000
     24 C           2.4793    4.0747   -1.6634 C.3     1  UNL1        0.0000
     25 C           4.5106    1.8416   -1.7025 C.2     1  UNL1        0.0000
     26 C           5.8246    1.2336   -1.3738 C.ar    1  UNL1        0.0000
     27 C           6.6637    0.4573   -2.1576 C.ar    1  UNL1        0.0000
     28 C           7.8377   -0.0179   -1.5606 C.ar    1  UNL1        0.0000
     29 C           8.1450    0.2895   -0.2290 C.ar    1  UNL1        0.0000
     30 C           7.2862    1.0750    0.5496 C.ar    1  UNL1        0.0000
     31 C           6.1224    1.5297   -0.0506 C.ar    1  UNL1        0.0000
     32 C           4.9900    2.3090    0.5234 C.2     1  UNL1        0.0000
     33 C           3.0643   -2.8199   -0.3815 C.3     1  UNL1        0.0000
     34 C           3.9730   -2.8079   -1.6304 C.3     1  UNL1        0.0000
     35 C           3.2873   -3.2698   -2.9253 C.3     1  UNL1        0.0000
     36 C           2.5195   -4.5839   -2.7372 C.3     1  UNL1        0.0000
     37 C           1.5531   -4.4966   -1.5496 C.3     1  UNL1        0.0000
     38 C           2.3136   -4.1709   -0.2583 C.3     1  UNL1        0.0000
     39 C           4.2277   -1.2209    1.1398 C.2     1  UNL1        0.0000
     40 C           5.0210   -1.2739    2.3911 C.ar    1  UNL1        0.0000
     41 C           5.5295   -0.2533    3.1822 C.ar    1  UNL1        0.0000
     42 C           6.2631   -0.6353    4.3134 C.ar    1  UNL1        0.0000
     43 C           6.4723   -1.9846    4.6244 C.ar    1  UNL1        0.0000
     44 C           5.9460   -3.0033    3.8193 C.ar    1  UNL1        0.0000
     45 C           5.2161   -2.6181    2.7066 C.ar    1  UNL1        0.0000
     46 C           4.5252   -3.4574    1.6814 C.2     1  UNL1        0.0000
     47 C          -2.7280   -3.1643   -0.4387 C.3     1  UNL1        0.0000
     48 C          -2.4791   -4.0748   -1.6632 C.3     1  UNL1        0.0000
     49 C          -3.4110   -5.2896   -1.6657 C.3     1  UNL1        0.0000
     50 C          -3.2261   -6.1322   -0.3997 C.3     1  UNL1        0.0000
     51 C          -3.4181   -5.2757    0.8561 C.3     1  UNL1        0.0000
     52 C          -2.5448   -4.0158    0.8371 C.3     1  UNL1        0.0000
     53 C          -4.9901   -2.3089    0.5232 C.2     1  UNL1        0.0000
     54 C          -6.1224   -1.5296   -0.0510 C.ar    1  UNL1        0.0000
     55 C          -7.2861   -1.0747    0.5491 C.ar    1  UNL1        0.0000
     56 C          -8.1448   -0.2891   -0.2296 C.ar    1  UNL1        0.0000
     57 C          -7.8373    0.0182   -1.5612 C.ar    1  UNL1        0.0000
     58 C          -6.6633   -0.4571   -2.1580 C.ar    1  UNL1        0.0000
     59 C          -5.8244   -1.2335   -1.3741 C.ar    1  UNL1        0.0000
     60 C          -4.5104   -1.8417   -1.7026 C.2     1  UNL1        0.0000
     61 C          -3.0642    2.8199   -0.3812 C.3     1  UNL1        0.0000
     62 C          -2.3134    4.1709   -0.2578 C.3     1  UNL1        0.0000
     63 C          -1.5528    4.4966   -1.5490 C.3     1  UNL1        0.0000
     64 C          -2.5191    4.5842   -2.7367 C.3     1  UNL1        0.0000
     65 C          -3.2870    3.2701   -2.9249 C.3     1  UNL1        0.0000
     66 C          -3.9728    2.8081   -1.6301 C.3     1  UNL1        0.0000
     67 C          -4.5255    3.4573    1.6814 C.2     1  UNL1        0.0000
     68 C          -5.2165    2.6180    2.7065 C.ar    1  UNL1        0.0000
     69 C          -5.9467    3.0031    3.8190 C.ar    1  UNL1        0.0000
     70 C          -6.4732    1.9844    4.6239 C.ar    1  UNL1        0.0000
     71 C          -6.2640    0.6351    4.3129 C.ar    1  UNL1        0.0000
     72 C          -5.5300    0.2532    3.1819 C.ar    1  UNL1        0.0000
     73 C          -5.0213    1.2738    2.3910 C.ar    1  UNL1        0.0000
     74 C          -4.2277    1.2208    1.1398 C.2     1  UNL1        0.0000
     75 H           1.4875    4.3104    0.8321 H       1  UNL1        0.0000
     76 H           2.7065    3.4119    1.7251 H       1  UNL1        0.0000
     77 H           3.1771    5.8543    1.7549 H       1  UNL1        0.0000
     78 H           4.4688    4.9862    0.9519 H       1  UNL1        0.0000
     79 H           3.9216    6.9792   -0.3929 H       1  UNL1        0.0000
     80 H           2.2121    6.5568   -0.4010 H       1  UNL1        0.0000
     81 H           3.2167    5.8894   -2.5615 H       1  UNL1        0.0000
     82 H           4.4536    4.9526   -1.7371 H       1  UNL1        0.0000
     83 H           2.5639    3.4999   -2.5811 H       1  UNL1        0.0000
     84 H           1.4409    4.4160   -1.5899 H       1  UNL1        0.0000
     85 H           8.5216   -0.6339   -2.1357 H       1  UNL1        0.0000
     86 H           9.0631   -0.0923    0.2063 H       1  UNL1        0.0000
     87 H           7.5113    1.3094    1.5835 H       1  UNL1        0.0000
     88 H           4.3942   -1.8061   -1.7523 H       1  UNL1        0.0000
     89 H           4.8022   -3.4875   -1.3980 H       1  UNL1        0.0000
     90 H           2.6007   -2.4914   -3.2643 H       1  UNL1        0.0000
     91 H           4.0522   -3.3868   -3.7016 H       1  UNL1        0.0000
     92 H           3.2282   -5.4043   -2.5567 H       1  UNL1        0.0000
     93 H           1.9744   -4.8324   -3.6545 H       1  UNL1        0.0000
     94 H           1.0269   -5.4483   -1.4151 H       1  UNL1        0.0000
     95 H           0.7885   -3.7377   -1.7517 H       1  UNL1        0.0000
     96 H           3.0465   -4.9530   -0.0593 H       1  UNL1        0.0000
     97 H           1.6433   -4.1238    0.6047 H       1  UNL1        0.0000
     98 H           5.3552    0.7891    2.9358 H       1  UNL1        0.0000
     99 H           6.6751    0.1296    4.9641 H       1  UNL1        0.0000
    100 H           7.0468   -2.2438    5.5081 H       1  UNL1        0.0000
    101 H          -1.4407   -4.4162   -1.5896 H       1  UNL1        0.0000
    102 H          -2.5635   -3.5000   -2.5810 H       1  UNL1        0.0000
    103 H          -3.2164   -5.8895   -2.5614 H       1  UNL1        0.0000
    104 H          -4.4534   -4.9526   -1.7372 H       1  UNL1        0.0000
    105 H          -3.9217   -6.9791   -0.3928 H       1  UNL1        0.0000
    106 H          -2.2123   -6.5568   -0.4007 H       1  UNL1        0.0000
    107 H          -3.1775   -5.8542    1.7551 H       1  UNL1        0.0000
    108 H          -4.4690   -4.9861    0.9519 H       1  UNL1        0.0000
    109 H          -2.7066   -3.4118    1.7253 H       1  UNL1        0.0000
    110 H          -1.4876   -4.3105    0.8324 H       1  UNL1        0.0000
    111 H          -9.0629    0.0928    0.2056 H       1  UNL1        0.0000
    112 H          -8.5210    0.6344   -2.1364 H       1  UNL1        0.0000
    113 H          -6.4075   -0.2282   -3.1868 H       1  UNL1        0.0000
    114 H          -1.6432    4.1236    0.6052 H       1  UNL1        0.0000
    115 H          -3.0463    4.9530   -0.0588 H       1  UNL1        0.0000
    116 H          -0.7883    3.7377   -1.7512 H       1  UNL1        0.0000
    117 H          -1.0266    5.4483   -1.4144 H       1  UNL1        0.0000
    118 H          -3.2278    5.4046   -2.5561 H       1  UNL1        0.0000
    119 H          -1.9740    4.8327   -3.6539 H       1  UNL1        0.0000
    120 H          -4.0519    3.3873   -3.7013 H       1  UNL1        0.0000
    121 H          -2.6005    2.4918   -3.2640 H       1  UNL1        0.0000
    122 H          -4.8019    3.4878   -1.3977 H       1  UNL1        0.0000
    123 H          -4.3941    1.8064   -1.7522 H       1  UNL1        0.0000
    124 H          -6.0943    4.0522    4.0515 H       1  UNL1        0.0000
    125 H          -7.0480    2.2435    5.5074 H       1  UNL1        0.0000
    126 H          -6.6761   -0.1298    4.9635 H       1  UNL1        0.0000
    127 O           4.8952    2.6797    1.6786 O.2     1  UNL1        0.0000
    128 O           3.9204    1.7606   -2.7580 O.2     1  UNL1        0.0000
    129 O           3.9162   -0.2542    0.4699 O.2     1  UNL1        0.0000
    130 O           4.5301   -4.6693    1.6029 O.2     1  UNL1        0.0000
    131 O          -4.8955   -2.6796    1.6784 O.2     1  UNL1        0.0000
    132 O          -3.9200   -1.7608   -2.7582 O.2     1  UNL1        0.0000
    133 O          -3.9160    0.2541    0.4700 O.2     1  UNL1        0.0000
    134 O          -4.5304    4.6692    1.6029 O.2     1  UNL1        0.0000
    135 H           6.4081    0.2283   -3.1864 H       1  UNL1        0.0000
    136 H           6.0934   -4.0524    4.0519 H       1  UNL1        0.0000
    137 H          -7.5114   -1.3090    1.5830 H       1  UNL1        0.0000
    138 H          -5.3557   -0.7893    2.9355 H       1  UNL1        0.0000
@<TRIPOS>BOND
     1     1     7    1
     2     1    12    1
     3     1     9    1
     4     1    14    1
     5     1     2    1
     6     3    61    1
     7     3    13    1
     8     4    11    1
     9     5    33    1
    10     5    10    1
    11     6     8    1
    12     7     6    1
    13     8     2    1
    14     9     5    1
    15    10     2    1
    16    11     2    1
    17    12     4    1
    18    13     2    1
    19    14     3    1
    20    15    19    1
    21    15    32   am
    22    16    39   am
    23    16    46   am
    24    17    47    1
    25    17    53   am
    26    18    74   am
    27    18    67   am
    28    19     6    1
    29    19    20    1
    30    20    21    1
    31    20    76    1
    32    21    78    1
    33    21    77    1
    34    22    79    1
    35    22    21    1
    36    23    24    1
    37    23    22    1
    38    24    84    1
    39    24    19    1
    40    25    26    1
    41    25    15   am
    42    26    31   ar
    43    27    28   ar
    44    27    26   ar
    45    28    29   ar
    46    29    86    1
    47    29    30   ar
    48    30    87    1
    49    31    32    1
    50    31    30   ar
    51    32   127    2
    52    33    38    1
    53    33    16    1
    54    34    89    1
    55    34    33    1
    56    35    36    1
    57    35    34    1
    58    36    92    1
    59    36    37    1
    60    37    94    1
    61    37    38    1
    62    38    96    1
    63    38    97    1
    64    39    40    1
    65    40    45   ar
    66    40    41   ar
    67    41    42   ar
    68    42    43   ar
    69    42    99    1
    70    43   100    1
    71    44   136    1
    72    44    43   ar
    73    45    44   ar
    74    46    45    1
    75    47     4    1
    76    47    52    1
    77    48   101    1
    78    48    47    1
    79    49    48    1
    80    49    50    1
    81    50   105    1
    82    50    51    1
    83    51   108    1
    84    51   107    1
    85    52    51    1
    86    52   109    1
    87    53   131    2
    88    54    53    1
    89    54    55   ar
    90    55   137    1
    91    56   111    1
    92    56    55   ar
    93    57    56   ar
    94    58    57   ar
    95    58    59   ar
    96    59    54   ar
    97    60    59    1
    98    60    17   am
    99    61    62    1
   100    61    18    1
   101    62   115    1
   102    62   114    1
   103    63   117    1
   104    63    62    1
   105    64   118    1
   106    64    63    1
   107    65    64    1
   108    65    66    1
   109    66   122    1
   110    66    61    1
   111    67    68    1
   112    68    69   ar
   113    69   124    1
   114    69    70   ar
   115    70   125    1
   116    71    70   ar
   117    71   126    1
   118    72    71   ar
   119    73    68   ar
   120    73    72   ar
   121    74    73    1
   122    75    20    1
   123    80    22    1
   124    81    23    1
   125    82    23    1
   126    83    24    1
   127    85    28    1
   128    88    34    1
   129    90    35    1
   130    91    35    1
   131    93    36    1
   132    95    37    1
   133    98    41    1
   134   102    48    1
   135   103    49    1
   136   104    49    1
   137   106    50    1
   138   110    52    1
   139   112    57    1
   140   113    58    1
   141   116    63    1
   142   119    64    1
   143   120    65    1
   144   121    65    1
   145   123    66    1
   146   128    25    2
   147   129    39    2
   148   130    46    2
   149   132    60    2
   150   133    74    2
   151   134    67    2
   152   135    27    1
   153   138    72    1
