@<TRIPOS>MOLECULE
RhRh_ACH4_28_sp
 138 153 0 0 0
SMALL
GASTEIGER

@<TRIPOS>ATOM
      1 Rh          0.0099    0.3359   -0.9681 Rh      1  UNL1        0.0000
      2 Rh         -0.9059   -0.3019    1.1437 Rh      1  UNL1        0.0000
      3 C           0.2726   -2.4742   -0.3539 C.3     1  UNL1        0.0000
      4 C           1.8845    0.4240    1.2152 C.3     1  UNL1        0.0000
      5 C          -1.1523    2.5107    0.5334 C.3     1  UNL1        0.0000
      6 C          -2.7777   -0.4065   -1.0686 C.3     1  UNL1        0.0000
      7 O          -1.7976   -0.1549   -1.8356 O.3     1  UNL1        0.0000
      8 O          -2.7274   -0.5293    0.1950 O.3     1  UNL1        0.0000
      9 O          -0.6921    2.2318   -0.6200 O.3     1  UNL1        0.0000
     10 O          -1.3628    1.6851    1.4707 O.3     1  UNL1        0.0000
     11 O           0.9639   -0.0372    1.9556 O.3     1  UNL1        0.0000
     12 O           1.7462    0.8074    0.0110 O.3     1  UNL1        0.0000
     13 O          -0.4002   -2.2408    0.6964 O.3     1  UNL1        0.0000
     14 O           0.6465   -1.6048   -1.2023 O.3     1  UNL1        0.0000
     15 N          -5.1128   -1.0190   -0.7346 N.am    1  UNL1        0.0000
     16 N          -0.4312    4.7725    0.1683 N.am    1  UNL1        0.0000
     17 N           4.2306    0.5274    0.6758 N.am    1  UNL1        0.0000
     18 N           2.1027   -4.0907   -0.2851 N.am    1  UNL1        0.0000
     19 C          -4.1559   -0.5108   -1.7440 C.3     1  UNL1        0.0000
     20 C          -4.0927   -1.4490   -2.9781 C.3     1  UNL1        0.0000
     21 C          -5.4281   -1.4813   -3.7263 C.3     1  UNL1        0.0000
     22 C          -5.8348   -0.0833   -4.2051 C.3     1  UNL1        0.0000
     23 C          -5.8470    0.9163   -3.0434 C.3     1  UNL1        0.0000
     24 C          -4.5258    0.9048   -2.2676 C.3     1  UNL1        0.0000
     25 C          -5.0108   -2.3438   -0.2386 C.2     1  UNL1        0.0000
     26 C          -5.8871   -2.4244    0.9562 C.ar    1  UNL1        0.0000
     27 C          -6.1802   -3.5019    1.7783 C.ar    1  UNL1        0.0000
     28 C          -7.0322   -3.2633    2.8630 C.ar    1  UNL1        0.0000
     29 C          -7.5603   -1.9872    3.1021 C.ar    1  UNL1        0.0000
     30 C          -7.2532   -0.9081    2.2649 C.ar    1  UNL1        0.0000
     31 C          -6.4092   -1.1587    1.1937 C.ar    1  UNL1        0.0000
     32 C          -5.8843   -0.2303    0.1564 C.2     1  UNL1        0.0000
     33 C          -1.5556    3.9900    0.7313 C.3     1  UNL1        0.0000
     34 C          -1.7550    4.3888    2.2104 C.3     1  UNL1        0.0000
     35 C          -2.9910    3.7665    2.8781 C.3     1  UNL1        0.0000
     36 C          -4.2565    3.9405    2.0314 C.3     1  UNL1        0.0000
     37 C          -4.0294    3.4446    0.6003 C.3     1  UNL1        0.0000
     38 C          -2.8691    4.1959   -0.0616 C.3     1  UNL1        0.0000
     39 C           0.8838    4.4153    0.5173 C.2     1  UNL1        0.0000
     40 C           1.7935    5.2234   -0.3278 C.ar    1  UNL1        0.0000
     41 C           3.1785    5.2248   -0.4128 C.ar    1  UNL1        0.0000
     42 C           3.7536    6.1076   -1.3362 C.ar    1  UNL1        0.0000
     43 C           2.9627    6.9473   -2.1305 C.ar    1  UNL1        0.0000
     44 C           1.5649    6.9286   -2.0368 C.ar    1  UNL1        0.0000
     45 C           1.0030    6.0489   -1.1259 C.ar    1  UNL1        0.0000
     46 C          -0.4355    5.7767   -0.8254 C.2     1  UNL1        0.0000
     47 C           3.3003    0.5335    1.8283 C.3     1  UNL1        0.0000
     48 C           3.4002    1.8408    2.6450 C.3     1  UNL1        0.0000
     49 C           2.4515    1.8420    3.8553 C.3     1  UNL1        0.0000
     50 C           2.4652    0.5130    4.6499 C.3     1  UNL1        0.0000
     51 C           3.6605   -0.3517    4.2431 C.3     1  UNL1        0.0000
     52 C           3.6086   -0.6990    2.7489 C.3     1  UNL1        0.0000
     53 C           4.1397   -0.5567   -0.2198 C.2     1  UNL1        0.0000
     54 C           4.9734   -0.2289   -1.3954 C.ar    1  UNL1        0.0000
     55 C           5.2360   -0.9646   -2.5417 C.ar    1  UNL1        0.0000
     56 C           6.0587   -0.3618   -3.5022 C.ar    1  UNL1        0.0000
     57 C           6.5813    0.9236   -3.3071 C.ar    1  UNL1        0.0000
     58 C           6.2961    1.6563   -2.1473 C.ar    1  UNL1        0.0000
     59 C           5.4835    1.0529   -1.2008 C.ar    1  UNL1        0.0000
     60 C           4.9718    1.5797    0.1023 C.2     1  UNL1        0.0000
     61 C           0.6666   -3.9433   -0.6595 C.3     1  UNL1        0.0000
     62 C          -0.1708   -4.9518    0.1605 C.3     1  UNL1        0.0000
     63 C          -1.6554   -4.9528   -0.2208 C.3     1  UNL1        0.0000
     64 C          -1.8725   -5.1610   -1.7201 C.3     1  UNL1        0.0000
     65 C          -1.0566   -4.1406   -2.5165 C.3     1  UNL1        0.0000
     66 C           0.4358   -4.2009   -2.1660 C.3     1  UNL1        0.0000
     67 C           3.2230   -4.1023   -1.1511 C.2     1  UNL1        0.0000
     68 C           4.4242   -4.2204   -0.2765 C.ar    1  UNL1        0.0000
     69 C           5.7649   -4.2940   -0.6179 C.ar    1  UNL1        0.0000
     70 C           6.6930   -4.3196    0.4306 C.ar    1  UNL1        0.0000
     71 C           6.2762   -4.2681    1.7672 C.ar    1  UNL1        0.0000
     72 C           4.9174   -4.1911    2.0967 C.ar    1  UNL1        0.0000
     73 C           4.0117   -4.1729    1.0483 C.ar    1  UNL1        0.0000
     74 C           2.5339   -4.0278    1.0660 C.2     1  UNL1        0.0000
     75 H          -3.3105   -1.0443   -3.6265 H       1  UNL1        0.0000
     76 H          -3.7879   -2.4483   -2.6781 H       1  UNL1        0.0000
     77 H          -5.3458   -2.1689   -4.5751 H       1  UNL1        0.0000
     78 H          -6.2058   -1.8895   -3.0682 H       1  UNL1        0.0000
     79 H          -6.8167   -0.1136   -4.6909 H       1  UNL1        0.0000
     80 H          -5.1167    0.2545   -4.9649 H       1  UNL1        0.0000
     81 H          -6.0257    1.9317   -3.4141 H       1  UNL1        0.0000
     82 H          -6.6712    0.6896   -2.3596 H       1  UNL1        0.0000
     83 H          -4.5542    1.6228   -1.4522 H       1  UNL1        0.0000
     84 H          -3.7033    1.1856   -2.9325 H       1  UNL1        0.0000
     85 H          -7.2868   -4.0774    3.5340 H       1  UNL1        0.0000
     86 H          -8.2151   -1.8351    3.9542 H       1  UNL1        0.0000
     87 H          -7.6485    0.0863    2.4409 H       1  UNL1        0.0000
     88 H          -0.8506    4.1422    2.7702 H       1  UNL1        0.0000
     89 H          -1.8548    5.4813    2.2095 H       1  UNL1        0.0000
     90 H          -2.8096    2.7022    3.0448 H       1  UNL1        0.0000
     91 H          -3.1235    4.2296    3.8627 H       1  UNL1        0.0000
     92 H          -4.5388    5.0024    2.0007 H       1  UNL1        0.0000
     93 H          -5.0941    3.4017    2.4872 H       1  UNL1        0.0000
     94 H          -4.9335    3.5821    0.0000 H       1  UNL1        0.0000
     95 H          -3.8374    2.3664    0.6167 H       1  UNL1        0.0000
     96 H          -3.0906    5.2638   -0.0888 H       1  UNL1        0.0000
     97 H          -2.7209    3.8742   -1.0953 H       1  UNL1        0.0000
     98 H           3.7869    4.5606    0.1917 H       1  UNL1        0.0000
     99 H           4.8335    6.1387   -1.4396 H       1  UNL1        0.0000
    100 H           3.4425    7.6193   -2.8352 H       1  UNL1        0.0000
    101 H           3.1807    2.6964    2.0136 H       1  UNL1        0.0000
    102 H           4.4387    1.9348    2.9721 H       1  UNL1        0.0000
    103 H           1.4393    2.0703    3.5141 H       1  UNL1        0.0000
    104 H           2.7575    2.6745    4.4978 H       1  UNL1        0.0000
    105 H           2.4856    0.7089    5.7271 H       1  UNL1        0.0000
    106 H           1.5490   -0.0471    4.4417 H       1  UNL1        0.0000
    107 H           3.6742   -1.2858    4.8156 H       1  UNL1        0.0000
    108 H           4.5957    0.1707    4.4814 H       1  UNL1        0.0000
    109 H           4.5658   -1.1212    2.4340 H       1  UNL1        0.0000
    110 H           2.8541   -1.4676    2.5835 H       1  UNL1        0.0000
    111 H           6.2910   -0.8956   -4.4182 H       1  UNL1        0.0000
    112 H           7.2124    1.3612   -4.0742 H       1  UNL1        0.0000
    113 H           6.6849    2.6567   -1.9916 H       1  UNL1        0.0000
    114 H          -0.0568   -4.7445    1.2217 H       1  UNL1        0.0000
    115 H           0.2661   -5.9387   -0.0386 H       1  UNL1        0.0000
    116 H          -2.1104   -4.0049    0.0775 H       1  UNL1        0.0000
    117 H          -2.1640   -5.7353    0.3538 H       1  UNL1        0.0000
    118 H          -1.5556   -6.1745   -2.0050 H       1  UNL1        0.0000
    119 H          -2.9367   -5.0730   -1.9572 H       1  UNL1        0.0000
    120 H          -1.1676   -4.3080   -3.5936 H       1  UNL1        0.0000
    121 H          -1.4384   -3.1298   -2.3240 H       1  UNL1        0.0000
    122 H           0.8299   -5.1951   -2.4011 H       1  UNL1        0.0000
    123 H           0.9974   -3.4827   -2.7561 H       1  UNL1        0.0000
    124 H           6.0747   -4.3212   -1.6570 H       1  UNL1        0.0000
    125 H           7.7538   -4.3753    0.2068 H       1  UNL1        0.0000
    126 H           7.0204   -4.2838    2.5571 H       1  UNL1        0.0000
    127 O          -6.0940    0.9642    0.0935 O.2     1  UNL1        0.0000
    128 O          -4.3248   -3.2338   -0.6996 O.2     1  UNL1        0.0000
    129 O           1.1630    3.5816    1.3592 O.2     1  UNL1        0.0000
    130 O          -1.3997    6.3192   -1.3241 O.2     1  UNL1        0.0000
    131 O           3.4605   -1.5446   -0.0263 O.2     1  UNL1        0.0000
    132 O           5.1693    2.6890    0.5601 O.2     1  UNL1        0.0000
    133 O           1.8310   -3.8632    2.0424 O.2     1  UNL1        0.0000
    134 O           3.2331   -4.0315   -2.3644 O.2     1  UNL1        0.0000
    135 H          -5.7580   -4.4817    1.5836 H       1  UNL1        0.0000
    136 H           0.9398    7.5662   -2.6525 H       1  UNL1        0.0000
    137 H           4.8049   -1.9504   -2.6861 H       1  UNL1        0.0000
    138 H           4.5780   -4.1364    3.1253 H       1  UNL1        0.0000
@<TRIPOS>BOND
     1     1     9    1
     2     1    12    1
     3     1     2    1
     4     2    10    1
     5     2    11    1
     6     3    13    1
     7     4    47    1
     8     4    11    1
     9     5    33    1
    10     5    10    1
    11     6     8    1
    12     7     6    1
    13     7     1    1
    14     8     2    1
    15     9     5    1
    16    12     4    1
    17    13     2    1
    18    14     1    1
    19    14     3    1
    20    15    25   am
    21    15    32   am
    22    16    39   am
    23    16    33    1
    24    17    47    1
    25    18    74   am
    26    19     6    1
    27    19    15    1
    28    20    76    1
    29    20    19    1
    30    21    78    1
    31    21    20    1
    32    22    21    1
    33    22    23    1
    34    23    82    1
    35    23    24    1
    36    24    19    1
    37    24    83    1
    38    25    26    1
    39    26    31   ar
    40    26    27   ar
    41    27    28   ar
    42    28    29   ar
    43    28    85    1
    44    29    86    1
    45    30    87    1
    46    30    29   ar
    47    31    30   ar
    48    32    31    1
    49    33    34    1
    50    34    88    1
    51    34    35    1
    52    35    90    1
    53    35    91    1
    54    36    93    1
    55    36    35    1
    56    37    95    1
    57    37    36    1
    58    38    37    1
    59    38    33    1
    60    39   129    2
    61    40    39    1
    62    41    40   ar
    63    41    98    1
    64    42    41   ar
    65    43    44   ar
    66    43    42   ar
    67    44    45   ar
    68    45    46    1
    69    45    40   ar
    70    46    16   am
    71    47    48    1
    72    47    52    1
    73    48   102    1
    74    48    49    1
    75    49   104    1
    76    49    50    1
    77    50   105    1
    78    51   108    1
    79    51    50    1
    80    51   107    1
    81    52    51    1
    82    53   131    2
    83    53    17   am
    84    54    59   ar
    85    54    53    1
    86    55    54   ar
    87    56    57   ar
    88    56    55   ar
    89    57    58   ar
    90    58   113    1
    91    58    59   ar
    92    59    60    1
    93    60   132    2
    94    60    17   am
    95    61     3    1
    96    61    18    1
    97    61    62    1
    98    62   114    1
    99    63   116    1
   100    63    62    1
   101    63   117    1
   102    64    63    1
   103    65   121    1
   104    65    66    1
   105    65    64    1
   106    66    61    1
   107    67    18   am
   108    67    68    1
   109    68    73   ar
   110    69    68   ar
   111    69    70   ar
   112    70    71   ar
   113    71    72   ar
   114    71   126    1
   115    72   138    1
   116    73    74    1
   117    73    72   ar
   118    74   133    2
   119    75    20    1
   120    77    21    1
   121    79    22    1
   122    80    22    1
   123    81    23    1
   124    84    24    1
   125    89    34    1
   126    92    36    1
   127    94    37    1
   128    96    38    1
   129    97    38    1
   130    99    42    1
   131   100    43    1
   132   101    48    1
   133   103    49    1
   134   106    50    1
   135   109    52    1
   136   110    52    1
   137   111    56    1
   138   112    57    1
   139   115    62    1
   140   118    64    1
   141   119    64    1
   142   120    65    1
   143   122    66    1
   144   123    66    1
   145   124    69    1
   146   125    70    1
   147   127    32    2
   148   128    25    2
   149   130    46    2
   150   134    67    2
   151   135    27    1
   152   136    44    1
   153   137    55    1
