@<TRIPOS>MOLECULE
RhRh_cis-Cy-fused-Hback-S-PTV4_6_sp
 146 157 0 0 0
SMALL
GASTEIGER

@<TRIPOS>ATOM
      1 Rh         -0.3414   -0.0524    0.2708 Rh      1  UNL1        0.0000
      2 Rh         -0.4574   -0.1057   -2.1190 Rh      1  UNL1        0.0000
      3 C          -2.9642    0.4333   -0.8249 C.3     1  UNL1        0.0000
      4 C           2.1682   -0.5621   -1.0420 C.3     1  UNL1        0.0000
      5 C          -0.8877   -2.6480   -0.8326 C.3     1  UNL1        0.0000
      6 C           0.1079    2.4886   -1.0014 C.3     1  UNL1        0.0000
      7 O           0.0326    1.9521    0.1511 O.3     1  UNL1        0.0000
      8 O          -0.1179    1.9243   -2.1095 O.3     1  UNL1        0.0000
      9 O          -2.3460    0.3221    0.2846 O.3     1  UNL1        0.0000
     10 O          -2.4779    0.2413   -1.9746 O.3     1  UNL1        0.0000
     11 O          -0.7240   -2.0553    0.2812 O.3     1  UNL1        0.0000
     12 O          -0.7669   -2.1335   -1.9829 O.3     1  UNL1        0.0000
     13 O           1.6702   -0.4115    0.1187 O.3     1  UNL1        0.0000
     14 O           1.5637   -0.4398   -2.1475 O.3     1  UNL1        0.0000
     15 N           1.6888    4.0192   -0.0673 N.am    1  UNL1        0.0000
     16 N          -4.4584    1.9391    0.2903 N.am    1  UNL1        0.0000
     17 N          -2.3893   -4.2219    0.2053 N.am    1  UNL1        0.0000
     18 N           3.9520   -1.8247   -0.0103 N.am    1  UNL1        0.0000
     19 C           1.6954    4.8335    1.0665 C.2     1  UNL1        0.0000
     20 C           2.7531    3.1182   -0.0923 C.2     1  UNL1        0.0000
     21 C          -3.5847    3.0293    0.2502 C.2     1  UNL1        0.0000
     22 C          -5.0457    1.7806    1.5542 C.2     1  UNL1        0.0000
     23 C          -3.4907   -3.3693    0.1828 C.2     1  UNL1        0.0000
     24 C          -2.3451   -5.0225    1.3502 C.2     1  UNL1        0.0000
     25 C           4.8723   -1.5510    1.0004 C.2     1  UNL1        0.0000
     26 C           3.2134   -2.9882    0.2334 C.2     1  UNL1        0.0000
     27 C           0.5548    3.9514   -0.9878 C.3     1  UNL1        0.0000
     28 C           0.8223    4.5572   -2.3778 C.3     1  UNL1        0.0000
     29 C          -0.5143    4.8108   -3.0885 C.3     1  UNL1        0.0000
     30 C           1.6312    5.8537   -2.2596 C.3     1  UNL1        0.0000
     31 C          -4.4314    0.8307   -0.6701 C.3     1  UNL1        0.0000
     32 C          -5.2595    1.0708   -1.9454 C.3     1  UNL1        0.0000
     33 C          -5.4033   -0.2363   -2.7398 C.3     1  UNL1        0.0000
     34 C          -4.7653    2.2197   -2.8314 C.3     1  UNL1        0.0000
     35 C          -1.2385   -4.1286   -0.6984 C.3     1  UNL1        0.0000
     36 C          -1.4021   -4.9508   -1.9899 C.3     1  UNL1        0.0000
     37 C          -2.5688   -4.5123   -2.8816 C.3     1  UNL1        0.0000
     38 C          -0.0756   -5.0009   -2.7630 C.3     1  UNL1        0.0000
     39 C           3.6601   -0.8685   -1.0747 C.3     1  UNL1        0.0000
     40 C           4.2341   -1.2565   -2.4498 C.3     1  UNL1        0.0000
     41 C           5.7662   -1.2724   -2.3836 C.3     1  UNL1        0.0000
     42 C           3.6931   -2.5738   -3.0169 C.3     1  UNL1        0.0000
     43 C           4.8412   -4.7941    0.7070 C.3     1  UNL1        0.0000
     44 C           3.9173   -3.7323    1.3565 C.3     1  UNL1        0.0000
     45 C           4.6904   -2.6101    2.0832 C.3     1  UNL1        0.0000
     46 C           5.9742   -2.9994    2.8201 C.3     1  UNL1        0.0000
     47 C           6.8212   -4.0109    2.0425 C.3     1  UNL1        0.0000
     48 C           5.9790   -5.2250    1.6352 C.3     1  UNL1        0.0000
     49 C          -4.8855   -2.4925    2.1113 C.3     1  UNL1        0.0000
     50 C          -3.1058   -4.0751    3.5380 C.3     1  UNL1        0.0000
     51 C          -2.6119   -2.6399    3.3152 C.3     1  UNL1        0.0000
     52 C          -3.7217   -1.7143    2.7513 C.3     1  UNL1        0.0000
     53 C          -3.5662   -4.7083    2.2061 C.3     1  UNL1        0.0000
     54 C          -4.4050   -3.7324    1.3459 C.3     1  UNL1        0.0000
     55 C          -1.6168    3.8312    2.7342 C.3     1  UNL1        0.0000
     56 C          -2.6418    4.6790    1.9768 C.3     1  UNL1        0.0000
     57 C          -3.3451    2.0963    3.2957 C.3     1  UNL1        0.0000
     58 C          -2.2955    3.0527    3.8654 C.3     1  UNL1        0.0000
     59 C          -3.8482    3.8690    1.4931 C.3     1  UNL1        0.0000
     60 C          -4.4383    2.8302    2.4726 C.3     1  UNL1        0.0000
     61 C           5.4678    5.3520    1.5217 C.3     1  UNL1        0.0000
     62 C           3.9988    5.7363    1.3266 C.3     1  UNL1        0.0000
     63 C           4.9536    2.8998    1.2468 C.3     1  UNL1        0.0000
     64 C           5.7968    4.0735    0.7421 C.3     1  UNL1        0.0000
     65 C           3.4573    3.2146    1.2529 C.3     1  UNL1        0.0000
     66 C           3.0299    4.6090    1.7643 C.3     1  UNL1        0.0000
     67 H          -0.2428    4.5164   -0.4936 H       1  UNL1        0.0000
     68 H          -0.3393    5.1747   -4.1056 H       1  UNL1        0.0000
     69 H          -1.0944    5.5719   -2.5536 H       1  UNL1        0.0000
     70 H          -1.1178    3.9038   -3.1449 H       1  UNL1        0.0000
     71 H           2.6399    5.6682   -1.8805 H       1  UNL1        0.0000
     72 H           1.1406    6.5654   -1.5861 H       1  UNL1        0.0000
     73 H           1.7263    6.3282   -3.2407 H       1  UNL1        0.0000
     74 H          -4.8915   -0.0058   -0.1351 H       1  UNL1        0.0000
     75 H          -4.4542   -0.5196   -3.1983 H       1  UNL1        0.0000
     76 H          -6.1476   -0.1104   -3.5321 H       1  UNL1        0.0000
     77 H          -5.7197   -1.0638   -2.0975 H       1  UNL1        0.0000
     78 H          -3.7545    2.0253   -3.1947 H       1  UNL1        0.0000
     79 H          -4.7508    3.1718   -2.2970 H       1  UNL1        0.0000
     80 H          -5.4306    2.3264   -3.6944 H       1  UNL1        0.0000
     81 H          -0.4096   -4.5650   -0.1309 H       1  UNL1        0.0000
     82 H          -3.5234   -4.5531   -2.3518 H       1  UNL1        0.0000
     83 H          -2.6380   -5.1772   -3.7487 H       1  UNL1        0.0000
     84 H          -2.4268   -3.4903   -3.2370 H       1  UNL1        0.0000
     85 H           0.7600   -5.2670   -2.1080 H       1  UNL1        0.0000
     86 H           0.1495   -4.0321   -3.2133 H       1  UNL1        0.0000
     87 H          -0.1365   -5.7465   -3.5616 H       1  UNL1        0.0000
     88 H           4.1382    0.0659   -0.7628 H       1  UNL1        0.0000
     89 H           6.1214   -2.0723   -1.7243 H       1  UNL1        0.0000
     90 H           6.1661   -0.3288   -2.0015 H       1  UNL1        0.0000
     91 H           6.1885   -1.4512   -3.3768 H       1  UNL1        0.0000
     92 H           2.6032   -2.5877   -3.0352 H       1  UNL1        0.0000
     93 H           4.0318   -3.4308   -2.4268 H       1  UNL1        0.0000
     94 H           4.0629   -2.7112   -4.0381 H       1  UNL1        0.0000
     95 H           1.4010    3.8272   -2.9524 H       1  UNL1        0.0000
     96 H          -6.2545    1.3400   -1.5652 H       1  UNL1        0.0000
     97 H          -1.6138   -5.9667   -1.6292 H       1  UNL1        0.0000
     98 H           3.9227   -0.4447   -3.1166 H       1  UNL1        0.0000
     99 H           3.1825   -4.2207    2.0003 H       1  UNL1        0.0000
    100 H           5.5698   -5.7081    2.5331 H       1  UNL1        0.0000
    101 H           5.2854   -4.3707   -0.2036 H       1  UNL1        0.0000
    102 H           6.5419   -2.0867    3.0258 H       1  UNL1        0.0000
    103 H           5.6998   -3.4356    3.7880 H       1  UNL1        0.0000
    104 H           7.6770   -4.3195    2.6519 H       1  UNL1        0.0000
    105 H           7.2311   -3.5353    1.1412 H       1  UNL1        0.0000
    106 H           6.5990   -5.9722    1.1284 H       1  UNL1        0.0000
    107 H           4.2293   -5.6433    0.3900 H       1  UNL1        0.0000
    108 H           4.0048   -2.1357    2.7994 H       1  UNL1        0.0000
    109 H          -3.2888   -1.0445    2.0051 H       1  UNL1        0.0000
    110 H          -5.5861   -2.8314    2.8825 H       1  UNL1        0.0000
    111 H          -3.9447   -4.0828    4.2430 H       1  UNL1        0.0000
    112 H          -2.3178   -4.7023    3.9653 H       1  UNL1        0.0000
    113 H          -1.7664   -2.6630    2.6175 H       1  UNL1        0.0000
    114 H          -2.2208   -2.2355    4.2546 H       1  UNL1        0.0000
    115 H          -4.1313   -1.0766    3.5401 H       1  UNL1        0.0000
    116 H          -5.4504   -1.8353    1.4466 H       1  UNL1        0.0000
    117 H          -4.0911   -5.6465    2.4079 H       1  UNL1        0.0000
    118 H          -5.2687   -4.2480    0.9092 H       1  UNL1        0.0000
    119 H          -3.0072    5.4747    2.6374 H       1  UNL1        0.0000
    120 H          -2.1743    5.1686    1.1180 H       1  UNL1        0.0000
    121 H          -1.5570    2.4771    4.4355 H       1  UNL1        0.0000
    122 H          -0.8276    4.4836    3.1176 H       1  UNL1        0.0000
    123 H          -2.8369    1.3800    2.6392 H       1  UNL1        0.0000
    124 H          -3.8368    1.5119    4.0788 H       1  UNL1        0.0000
    125 H          -2.7640    3.7529    4.5713 H       1  UNL1        0.0000
    126 H          -1.1363    3.1304    2.0407 H       1  UNL1        0.0000
    127 H          -4.6484    4.5639    1.2019 H       1  UNL1        0.0000
    128 H          -5.1933    3.2528    3.1395 H       1  UNL1        0.0000
    129 H           3.7416    6.6510    1.8686 H       1  UNL1        0.0000
    130 H           3.8385    5.9502    0.2619 H       1  UNL1        0.0000
    131 H           5.6005    4.2387   -0.3261 H       1  UNL1        0.0000
    132 H           5.6756    5.1944    2.5891 H       1  UNL1        0.0000
    133 H           5.1294    1.9956    0.6579 H       1  UNL1        0.0000
    134 H           5.2560    2.6605    2.2733 H       1  UNL1        0.0000
    135 H           6.8601    3.8285    0.8324 H       1  UNL1        0.0000
    136 H           6.1060    6.1800    1.1944 H       1  UNL1        0.0000
    137 H           2.9392    2.4547    1.8561 H       1  UNL1        0.0000
    138 H           2.8937    4.6347    2.8481 H       1  UNL1        0.0000
    139 O          -3.6624   -2.4860   -0.6369 O.2     1  UNL1        0.0000
    140 O          -1.4396   -5.7881    1.6093 O.2     1  UNL1        0.0000
    141 O          -2.7820    3.2432   -0.6377 O.2     1  UNL1        0.0000
    142 O          -5.8070    0.8807    1.8453 O.2     1  UNL1        0.0000
    143 O           2.9886    2.3617   -1.0157 O.2     1  UNL1        0.0000
    144 O           0.8095    5.6105    1.3622 O.2     1  UNL1        0.0000
    145 O           5.6251   -0.5969    1.0125 O.2     1  UNL1        0.0000
    146 O           2.2381   -3.3372   -0.4012 O.2     1  UNL1        0.0000
@<TRIPOS>BOND
     1     1    11    1
     2     1     9    1
     3     2     8    1
     4     2    12    1
     5     2    10    1
     6     2     1    1
     7     3    31    1
     8     3     9    1
     9     4    39    1
    10     4    13    1
    11     5    35    1
    12     5    11    1
    13     6    27    1
    14     6     7    1
    15     7     1    1
    16     8     6    1
    17    10     3    1
    18    12     5    1
    19    13     1    1
    20    14     2    1
    21    14     4    1
    22    15    19   am
    23    16    22   am
    24    17    24   am
    25    18    26   am
    26    18    25   am
    27    19   144    2
    28    19    66    1
    29    20    15   am
    30    20    65    1
    31    21    16   am
    32    21    59    1
    33    22   142    2
    34    22    60    1
    35    23    17   am
    36    23    54    1
    37    24   140    2
    38    24    53    1
    39    25   145    2
    40    25    45    1
    41    26    44    1
    42    27    67    1
    43    27    15    1
    44    28    30    1
    45    28    27    1
    46    29    69    1
    47    29    28    1
    48    30    71    1
    49    30    72    1
    50    31    74    1
    51    31    16    1
    52    32    96    1
    53    32    31    1
    54    33    77    1
    55    33    32    1
    56    34    79    1
    57    34    32    1
    58    35    81    1
    59    35    17    1
    60    36    97    1
    61    36    35    1
    62    37    82    1
    63    37    36    1
    64    38    85    1
    65    38    36    1
    66    39    88    1
    67    39    18    1
    68    40    41    1
    69    40    39    1
    70    41    90    1
    71    41    89    1
    72    42    40    1
    73    42    93    1
    74    43    44    1
    75    43    48    1
    76    44    99    1
    77    44    45    1
    78    45   108    1
    79    45    46    1
    80    46   102    1
    81    46   103    1
    82    47   104    1
    83    47    46    1
    84    48    47    1
    85    48   100    1
    86    49    52    1
    87    49   110    1
    88    50   112    1
    89    50   111    1
    90    51    50    1
    91    51   114    1
    92    52    51    1
    93    52   115    1
    94    53   117    1
    95    53    50    1
    96    54   118    1
    97    54    49    1
    98    54    53    1
    99    55   122    1
   100    55    58    1
   101    56   119    1
   102    56    55    1
   103    57    58    1
   104    57   124    1
   105    58   121    1
   106    58   125    1
   107    59   127    1
   108    59    56    1
   109    59    60    1
   110    60   128    1
   111    60    57    1
   112    61   132    1
   113    62    61    1
   114    62    66    1
   115    62   129    1
   116    63    65    1
   117    63   134    1
   118    64   135    1
   119    64    63    1
   120    64    61    1
   121    65    66    1
   122    65   137    1
   123    66   138    1
   124    68    29    1
   125    70    29    1
   126    73    30    1
   127    75    33    1
   128    76    33    1
   129    78    34    1
   130    80    34    1
   131    83    37    1
   132    84    37    1
   133    86    38    1
   134    87    38    1
   135    91    41    1
   136    92    42    1
   137    94    42    1
   138    95    28    1
   139    98    40    1
   140   101    43    1
   141   105    47    1
   142   106    48    1
   143   107    43    1
   144   109    52    1
   145   113    51    1
   146   116    49    1
   147   120    56    1
   148   123    57    1
   149   126    55    1
   150   130    62    1
   151   131    64    1
   152   133    63    1
   153   136    61    1
   154   139    23    2
   155   141    21    2
   156   143    20    2
   157   146    26    2
