@<TRIPOS>MOLECULE
RhRh_cis-Cy-fused-Hback-S-PTV4_31_sp
 146 157 0 0 0
SMALL
GASTEIGER

@<TRIPOS>ATOM
      1 Rh         -0.1813    0.0448    0.0835 Rh      1  UNL1        0.0000
      2 Rh         -0.0215   -0.0304   -2.3030 Rh      1  UNL1        0.0000
      3 C           1.5557   -2.0093   -0.9191 C.3     1  UNL1        0.0000
      4 C          -1.7648    2.0202   -1.2879 C.3     1  UNL1        0.0000
      5 C           1.9460    1.6286   -1.0133 C.3     1  UNL1        0.0000
      6 C          -2.1170   -1.6622   -1.1960 C.3     1  UNL1        0.0000
      7 O          -1.7308   -1.2689   -0.0473 O.3     1  UNL1        0.0000
      8 O          -1.5784   -1.3777   -2.3033 O.3     1  UNL1        0.0000
      9 O           1.1288   -1.5113    0.1718 O.3     1  UNL1        0.0000
     10 O           1.3039   -1.5888   -2.0854 O.3     1  UNL1        0.0000
     11 O           1.3876    1.3394    0.0938 O.3     1  UNL1        0.0000
     12 O           1.5414    1.3110   -2.1685 O.3     1  UNL1        0.0000
     13 O          -1.4866    1.5941   -0.1199 O.3     1  UNL1        0.0000
     14 O          -1.3680    1.5241   -2.3809 O.3     1  UNL1        0.0000
     15 N          -4.3024   -1.9132   -0.2402 N.am    1  UNL1        0.0000
     16 N           1.8301   -4.0591    0.2865 N.am    1  UNL1        0.0000
     17 N           3.9943    1.8164    0.2206 N.am    1  UNL1        0.0000
     18 N          -2.1318    4.1655   -0.2810 N.am    1  UNL1        0.0000
     19 C          -4.5751   -0.5398   -0.2567 C.2     1  UNL1        0.0000
     20 C          -4.6959   -2.5136    0.9602 C.2     1  UNL1        0.0000
     21 C           0.5027   -4.4742    0.2269 C.2     1  UNL1        0.0000
     22 C           2.4102   -4.2532    1.5378 C.2     1  UNL1        0.0000
     23 C           4.3388    2.5101    1.3825 C.2     1  UNL1        0.0000
     24 C           4.1508    0.4364    0.3544 C.2     1  UNL1        0.0000
     25 C          -0.7647    4.4413   -0.1375 C.2     1  UNL1        0.0000
     26 C          -2.8547    4.4899    0.8697 C.2     1  UNL1        0.0000
     27 C          -3.3443   -2.5686   -1.1384 C.3     1  UNL1        0.0000
     28 C          -3.9474   -3.0663   -2.4642 C.3     1  UNL1        0.0000
     29 C          -4.4760   -1.9644   -3.3886 C.3     1  UNL1        0.0000
     30 C          -2.9479   -3.9832   -3.1858 C.3     1  UNL1        0.0000
     31 C           2.4553   -3.2304   -0.7412 C.3     1  UNL1        0.0000
     32 C           2.8011   -3.9863   -2.0375 C.3     1  UNL1        0.0000
     33 C           3.3824   -5.3684   -1.7174 C.3     1  UNL1        0.0000
     34 C           3.7984   -3.1623   -2.8641 C.3     1  UNL1        0.0000
     35 C           3.2247    2.4468   -0.8571 C.3     1  UNL1        0.0000
     36 C           4.0197    2.7300   -2.1425 C.3     1  UNL1        0.0000
     37 C           5.0915    3.7900   -1.8588 C.3     1  UNL1        0.0000
     38 C           4.6326    1.4907   -2.8030 C.3     1  UNL1        0.0000
     39 C          -2.6804    3.2414   -1.2811 C.3     1  UNL1        0.0000
     40 C          -3.0377    3.8957   -2.6280 C.3     1  UNL1        0.0000
     41 C          -1.8473    4.4611   -3.4097 C.3     1  UNL1        0.0000
     42 C          -3.8691    2.9266   -3.4824 C.3     1  UNL1        0.0000
     43 C          -2.2604    5.2725    3.2352 C.3     1  UNL1        0.0000
     44 C          -1.9609    5.3691    1.7366 C.3     1  UNL1        0.0000
     45 C          -0.5414    4.9783    1.2672 C.3     1  UNL1        0.0000
     46 C           0.0868    3.8119    2.0783 C.3     1  UNL1        0.0000
     47 C          -0.1465    3.9499    3.5830 C.3     1  UNL1        0.0000
     48 C          -1.6468    4.0286    3.8837 C.3     1  UNL1        0.0000
     49 C           6.5095    1.7649    2.4443 C.3     1  UNL1        0.0000
     50 C           5.8176   -0.8501    1.7726 C.3     1  UNL1        0.0000
     51 C           7.0380   -0.2989    1.0112 C.3     1  UNL1        0.0000
     52 C           7.2331    1.2300    1.2025 C.3     1  UNL1        0.0000
     53 C           4.6480    0.1378    1.7592 C.3     1  UNL1        0.0000
     54 C           4.9854    1.5259    2.3503 C.3     1  UNL1        0.0000
     55 C          -1.1730   -3.3507    2.6062 C.3     1  UNL1        0.0000
     56 C          -1.1632   -4.8126    2.1216 C.3     1  UNL1        0.0000
     57 C           1.0538   -4.0829    3.6426 C.3     1  UNL1        0.0000
     58 C           0.1789   -2.8981    3.2151 C.3     1  UNL1        0.0000
     59 C           0.1803   -5.2312    1.5083 C.3     1  UNL1        0.0000
     60 C           1.3999   -4.9699    2.4286 C.3     1  UNL1        0.0000
     61 C          -4.2930    0.4904    3.3955 C.3     1  UNL1        0.0000
     62 C          -4.0553    0.5444    1.8865 C.3     1  UNL1        0.0000
     63 C          -5.5954   -1.6594    3.2090 C.3     1  UNL1        0.0000
     64 C          -4.3984   -0.9641    3.8646 C.3     1  UNL1        0.0000
     65 C          -5.6057   -1.5260    1.6830 C.3     1  UNL1        0.0000
     66 C          -5.1801   -0.1661    1.0856 C.3     1  UNL1        0.0000
     67 H          -3.0100   -3.4486   -0.5781 H       1  UNL1        0.0000
     68 H          -4.9119   -2.4185   -4.2845 H       1  UNL1        0.0000
     69 H          -3.6711   -1.2943   -3.6962 H       1  UNL1        0.0000
     70 H          -5.2450   -1.3596   -2.9046 H       1  UNL1        0.0000
     71 H          -2.5456   -4.7477   -2.5137 H       1  UNL1        0.0000
     72 H          -2.1057   -3.4087   -3.5766 H       1  UNL1        0.0000
     73 H          -3.4408   -4.4862   -4.0233 H       1  UNL1        0.0000
     74 H           3.3752   -2.8541   -0.2818 H       1  UNL1        0.0000
     75 H           4.2542   -5.2839   -1.0584 H       1  UNL1        0.0000
     76 H           3.7037   -5.8631   -2.6387 H       1  UNL1        0.0000
     77 H           2.6517   -6.0174   -1.2274 H       1  UNL1        0.0000
     78 H           4.7421   -3.0438   -2.3192 H       1  UNL1        0.0000
     79 H           3.4098   -2.1685   -3.0877 H       1  UNL1        0.0000
     80 H           4.0163   -3.6704   -3.8086 H       1  UNL1        0.0000
     81 H           2.9006    3.4068   -0.4398 H       1  UNL1        0.0000
     82 H           4.6627    4.6941   -1.4167 H       1  UNL1        0.0000
     83 H           5.6071    4.0678   -2.7827 H       1  UNL1        0.0000
     84 H           5.8452    3.4068   -1.1619 H       1  UNL1        0.0000
     85 H           3.8830    0.7220   -2.9897 H       1  UNL1        0.0000
     86 H           5.4137    1.0530   -2.1742 H       1  UNL1        0.0000
     87 H           5.0919    1.7751   -3.7552 H       1  UNL1        0.0000
     88 H          -3.6128    2.8812   -0.8328 H       1  UNL1        0.0000
     89 H          -1.1468    3.6686   -3.6796 H       1  UNL1        0.0000
     90 H          -1.2981    5.2083   -2.8339 H       1  UNL1        0.0000
     91 H          -2.2072    4.9347   -4.3290 H       1  UNL1        0.0000
     92 H          -4.7013    2.5013   -2.9134 H       1  UNL1        0.0000
     93 H          -3.2544    2.0981   -3.8398 H       1  UNL1        0.0000
     94 H          -4.2782    3.4526   -4.3504 H       1  UNL1        0.0000
     95 H          -4.7997   -3.6851   -2.1511 H       1  UNL1        0.0000
     96 H           1.8766   -4.1112   -2.6103 H       1  UNL1        0.0000
     97 H           3.2829    3.1566   -2.8335 H       1  UNL1        0.0000
     98 H          -3.6897    4.7350   -2.3488 H       1  UNL1        0.0000
     99 H          -2.1662    6.3955    1.4025 H       1  UNL1        0.0000
    100 H          -1.8285    4.0500    4.9635 H       1  UNL1        0.0000
    101 H          -3.3463    5.2891    3.3692 H       1  UNL1        0.0000
    102 H          -0.3623    2.8709    1.7423 H       1  UNL1        0.0000
    103 H           1.1504    3.7521    1.8345 H       1  UNL1        0.0000
    104 H           0.3542    4.8495    3.9664 H       1  UNL1        0.0000
    105 H           0.3059    3.0942    4.0970 H       1  UNL1        0.0000
    106 H          -2.1427    3.1284    3.4954 H       1  UNL1        0.0000
    107 H          -1.8576    6.1654    3.7282 H       1  UNL1        0.0000
    108 H           0.1444    5.8287    1.2483 H       1  UNL1        0.0000
    109 H           6.8572    1.7632    0.3212 H       1  UNL1        0.0000
    110 H           6.8873    1.2620    3.3415 H       1  UNL1        0.0000
    111 H           6.0781   -1.0445    2.8187 H       1  UNL1        0.0000
    112 H           5.4896   -1.8046    1.3534 H       1  UNL1        0.0000
    113 H           6.9240   -0.5169   -0.0557 H       1  UNL1        0.0000
    114 H           7.9318   -0.8378    1.3415 H       1  UNL1        0.0000
    115 H           8.2986    1.4711    1.2640 H       1  UNL1        0.0000
    116 H           6.6935    2.8355    2.5769 H       1  UNL1        0.0000
    117 H           3.7889   -0.3061    2.2768 H       1  UNL1        0.0000
    118 H           4.5301    1.6865    3.3312 H       1  UNL1        0.0000
    119 H          -1.3634   -5.4886    2.9604 H       1  UNL1        0.0000
    120 H          -1.9667   -4.9668    1.3979 H       1  UNL1        0.0000
    121 H           0.7323   -2.3073    2.4764 H       1  UNL1        0.0000
    122 H          -1.9769   -3.2476    3.3418 H       1  UNL1        0.0000
    123 H           1.9881   -3.7396    4.0967 H       1  UNL1        0.0000
    124 H           0.5332   -4.6910    4.3911 H       1  UNL1        0.0000
    125 H           0.0068   -2.2381    4.0722 H       1  UNL1        0.0000
    126 H          -1.4321   -2.6968    1.7710 H       1  UNL1        0.0000
    127 H           0.1301   -6.2908    1.2300 H       1  UNL1        0.0000
    128 H           1.8622   -5.8991    2.7755 H       1  UNL1        0.0000
    129 H          -3.9691    1.5719    1.5270 H       1  UNL1        0.0000
    130 H          -3.1021    0.0512    1.6649 H       1  UNL1        0.0000
    131 H          -3.4735   -1.4940    3.6022 H       1  UNL1        0.0000
    132 H          -5.2122    1.0331    3.6553 H       1  UNL1        0.0000
    133 H          -5.6153   -2.7245    3.4597 H       1  UNL1        0.0000
    134 H          -6.5193   -1.2167    3.5997 H       1  UNL1        0.0000
    135 H          -4.4969   -1.0179    4.9542 H       1  UNL1        0.0000
    136 H          -3.4706    1.0023    3.9084 H       1  UNL1        0.0000
    137 H          -6.6151   -1.7630    1.3191 H       1  UNL1        0.0000
    138 H          -6.0225    0.5162    0.9490 H       1  UNL1        0.0000
    139 O           4.1531    3.6991    1.5490 O.2     1  UNL1        0.0000
    140 O           3.8916   -0.3728   -0.5158 O.2     1  UNL1        0.0000
    141 O          -0.2401   -4.2458   -0.7104 O.2     1  UNL1        0.0000
    142 O           3.5215   -3.8688    1.8466 O.2     1  UNL1        0.0000
    143 O          -4.3731   -3.6305    1.3115 O.2     1  UNL1        0.0000
    144 O          -4.2582    0.2125   -1.1583 O.2     1  UNL1        0.0000
    145 O           0.0827    4.1700   -0.9652 O.2     1  UNL1        0.0000
    146 O          -3.9939    4.1310    1.0943 O.2     1  UNL1        0.0000
@<TRIPOS>BOND
     1     1    11    1
     2     1     9    1
     3     2    12    1
     4     2    10    1
     5     2     1    1
     6     3    31    1
     7     3     9    1
     8     4    39    1
     9     4    13    1
    10     5    35    1
    11     5    11    1
    12     6    27    1
    13     6     7    1
    14     7     1    1
    15     8     2    1
    16     8     6    1
    17    10     3    1
    18    12     5    1
    19    13     1    1
    20    14     2    1
    21    14     4    1
    22    15    20   am
    23    16    22   am
    24    17    24   am
    25    17    23   am
    26    18    25   am
    27    18    26   am
    28    19    15   am
    29    19    66    1
    30    20   143    2
    31    20    65    1
    32    21    16   am
    33    21    59    1
    34    22   142    2
    35    22    60    1
    36    23   139    2
    37    23    54    1
    38    24    53    1
    39    25    45    1
    40    26   146    2
    41    26    44    1
    42    27    67    1
    43    27    15    1
    44    28    95    1
    45    28    27    1
    46    29    70    1
    47    29    28    1
    48    30    71    1
    49    30    28    1
    50    31    74    1
    51    31    16    1
    52    32    33    1
    53    32    31    1
    54    33    77    1
    55    33    75    1
    56    34    78    1
    57    34    32    1
    58    35    81    1
    59    35    17    1
    60    36    37    1
    61    36    35    1
    62    37    82    1
    63    37    84    1
    64    38    86    1
    65    38    36    1
    66    39    88    1
    67    39    18    1
    68    40    98    1
    69    40    39    1
    70    41    90    1
    71    41    40    1
    72    42    92    1
    73    42    40    1
    74    43   101    1
    75    43   107    1
    76    43    48    1
    77    44    99    1
    78    44    43    1
    79    45   108    1
    80    45    44    1
    81    45    46    1
    82    46    47    1
    83    47    48    1
    84    47   104    1
    85    47   105    1
    86    48   100    1
    87    49   116    1
    88    49   110    1
    89    50   111    1
    90    51    52    1
    91    51   114    1
    92    51    50    1
    93    52   115    1
    94    52    49    1
    95    53    50    1
    96    53   117    1
    97    53    54    1
    98    54    49    1
    99    54   118    1
   100    55    58    1
   101    55   122    1
   102    56    55    1
   103    56   119    1
   104    57   123    1
   105    57   124    1
   106    58    57    1
   107    58   125    1
   108    59   127    1
   109    59    56    1
   110    59    60    1
   111    60   128    1
   112    60    57    1
   113    61   132    1
   114    61    64    1
   115    61   136    1
   116    62    61    1
   117    63   133    1
   118    63   134    1
   119    63    64    1
   120    64   135    1
   121    65   137    1
   122    65    63    1
   123    66   138    1
   124    66    65    1
   125    66    62    1
   126    68    29    1
   127    69    29    1
   128    72    30    1
   129    73    30    1
   130    76    33    1
   131    79    34    1
   132    80    34    1
   133    83    37    1
   134    85    38    1
   135    87    38    1
   136    89    41    1
   137    91    41    1
   138    93    42    1
   139    94    42    1
   140    96    32    1
   141    97    36    1
   142   102    46    1
   143   103    46    1
   144   106    48    1
   145   109    52    1
   146   112    50    1
   147   113    51    1
   148   120    56    1
   149   121    58    1
   150   126    55    1
   151   129    62    1
   152   130    62    1
   153   131    64    1
   154   140    24    2
   155   141    21    2
   156   144    19    2
   157   145    25    2
