@<TRIPOS>MOLECULE
RhRh_ACyPentyl4_28_sp
 126 141 0 0 0
SMALL
GASTEIGER

@<TRIPOS>ATOM
      1 Rh         -0.4268   -0.6827    0.7957 Rh      1  UNL1        0.0000
      2 Rh         -0.5242    0.4129   -1.3285 Rh      1  UNL1        0.0000
      3 C          -2.1433    1.6423    0.7313 C.3     1  UNL1        0.0000
      4 C           1.5348    1.3915    0.4391 C.3     1  UNL1        0.0000
      5 C           1.1882   -1.9070   -1.2650 C.3     1  UNL1        0.0000
      6 C          -2.5175   -1.6428   -0.9633 C.3     1  UNL1        0.0000
      7 O          -1.7778    0.7040    1.5052 O.3     1  UNL1        0.0000
      8 O          -1.8030    1.7834   -0.4850 O.3     1  UNL1        0.0000
      9 O          -1.9769   -1.8797    0.1624 O.3     1  UNL1        0.0000
     10 O          -2.1338   -0.7791   -1.8100 O.3     1  UNL1        0.0000
     11 O           0.7367   -1.0216   -2.0547 O.3     1  UNL1        0.0000
     12 O           0.9181   -2.0079   -0.0288 O.3     1  UNL1        0.0000
     13 O           1.0771    1.5512   -0.7329 O.3     1  UNL1        0.0000
     14 O           1.0790    0.6008    1.3244 O.3     1  UNL1        0.0000
     15 N          -3.0892    3.8425    0.3933 N.am    1  UNL1        0.0000
     16 N          -4.2907   -3.0312   -0.0910 N.am    1  UNL1        0.0000
     17 N           3.5004   -2.3977   -1.8779 N.am    1  UNL1        0.0000
     18 N           3.6226    1.5455    1.6519 N.am    1  UNL1        0.0000
     19 C          -3.0911    2.6993    1.3157 C.3     1  UNL1        0.0000
     20 C          -2.6697    3.1023    2.7562 C.3     1  UNL1        0.0000
     21 C          -3.3354    2.0810    3.7069 C.3     1  UNL1        0.0000
     22 C          -4.3879    1.3215    2.8627 C.3     1  UNL1        0.0000
     23 C          -4.5028    2.0894    1.5394 C.3     1  UNL1        0.0000
     24 C          -3.9146    3.9471   -0.7566 C.2     1  UNL1        0.0000
     25 C          -3.3107    5.0180   -1.5987 C.ar    1  UNL1        0.0000
     26 C          -3.7452    5.5593   -2.7988 C.ar    1  UNL1        0.0000
     27 C          -2.9393    6.5409   -3.3881 C.ar    1  UNL1        0.0000
     28 C          -1.7425    6.9531   -2.7870 C.ar    1  UNL1        0.0000
     29 C          -1.3136    6.3982   -1.5756 C.ar    1  UNL1        0.0000
     30 C          -2.1232    5.4303   -1.0006 C.ar    1  UNL1        0.0000
     31 C          -1.9342    4.6380    0.2406 C.2     1  UNL1        0.0000
     32 C          -3.7367   -2.4985   -1.3406 C.3     1  UNL1        0.0000
     33 C          -4.7775   -1.6778   -2.1511 C.3     1  UNL1        0.0000
     34 C          -4.3629   -1.7937   -3.6380 C.3     1  UNL1        0.0000
     35 C          -3.2505   -2.8685   -3.6977 C.3     1  UNL1        0.0000
     36 C          -3.3202   -3.5999   -2.3519 C.3     1  UNL1        0.0000
     37 C          -4.8632   -2.1496    0.8518 C.2     1  UNL1        0.0000
     38 C          -4.9694   -2.9033    2.1268 C.ar    1  UNL1        0.0000
     39 C          -5.5067   -2.5261    3.3483 C.ar    1  UNL1        0.0000
     40 C          -5.4252   -3.4511    4.3958 C.ar    1  UNL1        0.0000
     41 C          -4.8228   -4.7026    4.2109 C.ar    1  UNL1        0.0000
     42 C          -4.2807   -5.0696    2.9732 C.ar    1  UNL1        0.0000
     43 C          -4.3682   -4.1462    1.9429 C.ar    1  UNL1        0.0000
     44 C          -3.8603   -4.2229    0.5439 C.2     1  UNL1        0.0000
     45 C           2.1396   -2.9632   -1.8849 C.3     1  UNL1        0.0000
     46 C           1.9927   -4.3061   -1.1419 C.3     1  UNL1        0.0000
     47 C           0.6343   -4.8386   -1.6405 C.3     1  UNL1        0.0000
     48 C           0.4432   -4.2391   -3.0640 C.3     1  UNL1        0.0000
     49 C           1.6664   -3.3348   -3.3075 C.3     1  UNL1        0.0000
     50 C           3.8924   -1.3376   -2.7382 C.2     1  UNL1        0.0000
     51 C           5.2603   -0.9431   -2.3106 C.ar    1  UNL1        0.0000
     52 C           6.0984    0.0379   -2.8162 C.ar    1  UNL1        0.0000
     53 C           7.3455    0.1961   -2.1999 C.ar    1  UNL1        0.0000
     54 C           7.7260   -0.6164   -1.1246 C.ar    1  UNL1        0.0000
     55 C           6.8701   -1.6068   -0.6274 C.ar    1  UNL1        0.0000
     56 C           5.6316   -1.7430   -1.2355 C.ar    1  UNL1        0.0000
     57 C           4.4948   -2.6511   -0.9106 C.2     1  UNL1        0.0000
     58 C           2.6558    2.3379    0.8836 C.3     1  UNL1        0.0000
     59 C           1.9415    3.4584    1.7282 C.3     1  UNL1        0.0000
     60 C           2.3870    4.7870    1.1049 C.3     1  UNL1        0.0000
     61 C           2.6054    4.4333   -0.3733 C.3     1  UNL1        0.0000
     62 C           3.3261    3.0808   -0.3013 C.3     1  UNL1        0.0000
     63 C           3.9546    0.2343    1.2739 C.2     1  UNL1        0.0000
     64 C           4.9198   -0.2647    2.2877 C.ar    1  UNL1        0.0000
     65 C           5.4760   -1.5235    2.4648 C.ar    1  UNL1        0.0000
     66 C           6.3832   -1.6736    3.5227 C.ar    1  UNL1        0.0000
     67 C           6.7126   -0.5997    4.3582 C.ar    1  UNL1        0.0000
     68 C           6.1341    0.6631    4.1743 C.ar    1  UNL1        0.0000
     69 C           5.2321    0.8018    3.1322 C.ar    1  UNL1        0.0000
     70 C           4.4379    1.9932    2.7088 C.2     1  UNL1        0.0000
     71 H          -1.5887    3.1536    2.8673 H       1  UNL1        0.0000
     72 H          -3.0621    4.1088    2.9274 H       1  UNL1        0.0000
     73 H          -3.7906    2.5980    4.5570 H       1  UNL1        0.0000
     74 H          -2.5926    1.3884    4.1082 H       1  UNL1        0.0000
     75 H          -5.3613    1.2539    3.3577 H       1  UNL1        0.0000
     76 H          -4.0529    0.3030    2.6632 H       1  UNL1        0.0000
     77 H          -5.1992    2.9280    1.6313 H       1  UNL1        0.0000
     78 H          -4.8413    1.4684    0.7135 H       1  UNL1        0.0000
     79 H          -4.6689    5.2240   -3.2576 H       1  UNL1        0.0000
     80 H          -3.2417    6.9881   -4.3297 H       1  UNL1        0.0000
     81 H          -1.1380    7.7122   -3.2732 H       1  UNL1        0.0000
     82 H          -0.3858    6.7012   -1.1025 H       1  UNL1        0.0000
     83 H          -5.7516   -2.1440   -1.9792 H       1  UNL1        0.0000
     84 H          -4.8423   -0.6500   -1.8014 H       1  UNL1        0.0000
     85 H          -3.9980   -0.8367   -4.0160 H       1  UNL1        0.0000
     86 H          -5.2245   -2.0777   -4.2493 H       1  UNL1        0.0000
     87 H          -3.3714   -3.5633   -4.5332 H       1  UNL1        0.0000
     88 H          -2.2757   -2.3878   -3.8117 H       1  UNL1        0.0000
     89 H          -2.4017   -4.1125   -2.0713 H       1  UNL1        0.0000
     90 H          -4.1166   -4.3498   -2.3570 H       1  UNL1        0.0000
     91 H          -3.8031   -6.0310    2.8188 H       1  UNL1        0.0000
     92 H           2.0506   -4.1998   -0.0624 H       1  UNL1        0.0000
     93 H           2.8093   -4.9592   -1.4608 H       1  UNL1        0.0000
     94 H           0.6151   -5.9311   -1.6406 H       1  UNL1        0.0000
     95 H          -0.1667   -4.5101   -0.9714 H       1  UNL1        0.0000
     96 H           0.3600   -5.0095   -3.8349 H       1  UNL1        0.0000
     97 H          -0.4724   -3.6450   -3.1130 H       1  UNL1        0.0000
     98 H           2.4814   -3.8940   -3.7791 H       1  UNL1        0.0000
     99 H           1.4558   -2.4600   -3.9163 H       1  UNL1        0.0000
    100 H           5.7881    0.6555   -3.6521 H       1  UNL1        0.0000
    101 H           8.0302    0.9575   -2.5599 H       1  UNL1        0.0000
    102 H           8.7007   -0.4736   -0.6689 H       1  UNL1        0.0000
    103 H           7.1571   -2.2365    0.2063 H       1  UNL1        0.0000
    104 H           2.1720    3.3711    2.7874 H       1  UNL1        0.0000
    105 H           0.8620    3.3537    1.6094 H       1  UNL1        0.0000
    106 H           1.6362    5.5666    1.2534 H       1  UNL1        0.0000
    107 H           3.3291    5.1114    1.5596 H       1  UNL1        0.0000
    108 H           3.1812    5.1846   -0.9224 H       1  UNL1        0.0000
    109 H           1.6382    4.3127   -0.8738 H       1  UNL1        0.0000
    110 H           3.2837    2.4952   -1.2202 H       1  UNL1        0.0000
    111 H           4.3770    3.2377   -0.0375 H       1  UNL1        0.0000
    112 H           6.3706    1.5018    4.8200 H       1  UNL1        0.0000
    113 O           4.4881    3.1206    3.1586 O.2     1  UNL1        0.0000
    114 O           3.5281   -0.3193    0.2776 O.2     1  UNL1        0.0000
    115 O           4.4438   -3.4614   -0.0051 O.2     1  UNL1        0.0000
    116 O           3.2412   -0.8680   -3.6459 O.2     1  UNL1        0.0000
    117 O          -3.2094   -5.1168    0.0458 O.2     1  UNL1        0.0000
    118 O          -5.1693   -0.9930    0.6383 O.2     1  UNL1        0.0000
    119 O          -0.9710    4.6437    0.9835 O.2     1  UNL1        0.0000
    120 O          -4.9054    3.2932   -1.0000 O.2     1  UNL1        0.0000
    121 H          -5.9611   -1.5502    3.4786 H       1  UNL1        0.0000
    122 H          -5.8307   -3.1955    5.3696 H       1  UNL1        0.0000
    123 H          -4.7720   -5.3956    5.0447 H       1  UNL1        0.0000
    124 H           5.2064   -2.3526    1.8186 H       1  UNL1        0.0000
    125 H           6.8371   -2.6435    3.7006 H       1  UNL1        0.0000
    126 H           7.4211   -0.7516    5.1664 H       1  UNL1        0.0000
@<TRIPOS>BOND
     1     1    14    1
     2     1     7    1
     3     2    13    1
     4     2     8    1
     5     2     1    1
     6     3    19    1
     7     3     7    1
     8     4    58    1
     9     4    14    1
    10     5    12    1
    11     6     9    1
    12     8     3    1
    13     9     1    1
    14    10     2    1
    15    10     6    1
    16    11     2    1
    17    11     5    1
    18    12     1    1
    19    13     4    1
    20    15    19    1
    21    16    44   am
    22    16    37   am
    23    17    57   am
    24    18    70   am
    25    19    23    1
    26    19    20    1
    27    20    71    1
    28    20    72    1
    29    20    21    1
    30    21    74    1
    31    21    73    1
    32    22    75    1
    33    22    21    1
    34    23    77    1
    35    23    22    1
    36    24    15   am
    37    25    30   ar
    38    25    24    1
    39    26    25   ar
    40    27    26   ar
    41    27    28   ar
    42    28    29   ar
    43    29    82    1
    44    29    30   ar
    45    30    31    1
    46    31    15   am
    47    31   119    2
    48    32     6    1
    49    32    16    1
    50    33    83    1
    51    33    84    1
    52    33    32    1
    53    34    33    1
    54    35    34    1
    55    35    36    1
    56    36    89    1
    57    36    32    1
    58    37    38    1
    59    38    39   ar
    60    39   121    1
    61    39    40   ar
    62    40   122    1
    63    41    40   ar
    64    41   123    1
    65    42    41   ar
    66    43    38   ar
    67    43    42   ar
    68    44    43    1
    69    45    17    1
    70    45     5    1
    71    45    46    1
    72    46    92    1
    73    47    46    1
    74    47    95    1
    75    48    47    1
    76    49    48    1
    77    49    45    1
    78    50    51    1
    79    50    17   am
    80    51    56   ar
    81    52    51   ar
    82    52    53   ar
    83    53    54   ar
    84    54   102    1
    85    54    55   ar
    86    55   103    1
    87    56    57    1
    88    56    55   ar
    89    57   115    2
    90    58    18    1
    91    58    59    1
    92    59   104    1
    93    60   106    1
    94    60   107    1
    95    60    59    1
    96    61    62    1
    97    61    60    1
    98    62   111    1
    99    62    58    1
   100    63    18   am
   101    63    64    1
   102    64    65   ar
   103    64    69   ar
   104    65    66   ar
   105    66   125    1
   106    66    67   ar
   107    67   126    1
   108    68    67   ar
   109    68   112    1
   110    69    68   ar
   111    70    69    1
   112    70   113    2
   113    76    22    1
   114    78    23    1
   115    79    26    1
   116    80    27    1
   117    81    28    1
   118    85    34    1
   119    86    34    1
   120    87    35    1
   121    88    35    1
   122    90    36    1
   123    91    42    1
   124    93    46    1
   125    94    47    1
   126    96    48    1
   127    97    48    1
   128    98    49    1
   129    99    49    1
   130   100    52    1
   131   101    53    1
   132   105    59    1
   133   108    61    1
   134   109    61    1
   135   110    62    1
   136   114    63    2
   137   116    50    2
   138   117    44    2
   139   118    37    2
   140   120    24    2
   141   124    65    1
