@<TRIPOS>MOLECULE
RhRh_pFPhMe2-O2C4_20kcal_15_sp
 94 101 0 0 0
SMALL
GASTEIGER

@<TRIPOS>ATOM
      1 Rh          0.3375   -0.7323    1.0939 Rh      1  UNL1        0.0000
      2 Rh          0.5175   -0.7310   -1.2871 Rh      1  UNL1        0.0000
      3 C          -1.4017   -2.6252   -0.2422 C.3     1  UNL1        0.0000
      4 C           2.4331   -2.4354    0.0442 C.3     1  UNL1        0.0000
      5 C           2.1765    1.2365    0.0393 C.3     1  UNL1        0.0000
      6 C          -1.4923    1.0674   -0.2234 C.3     1  UNL1        0.0000
      7 O           1.8350   -2.1528    1.1318 O.3     1  UNL1        0.0000
      8 O           2.0819   -2.0494   -1.1151 O.3     1  UNL1        0.0000
      9 O          -1.1110   -2.1850    0.9133 O.3     1  UNL1        0.0000
     10 O          -0.8358   -2.2772   -1.3294 O.3     1  UNL1        0.0000
     11 O          -1.1043    0.7054    0.9333 O.3     1  UNL1        0.0000
     12 O          -1.0427    0.6154   -1.3259 O.3     1  UNL1        0.0000
     13 O           1.7555    0.7574    1.1387 O.3     1  UNL1        0.0000
     14 O           1.8621    0.8095   -1.1186 O.3     1  UNL1        0.0000
     15 F          -7.1806   -0.6031   -1.7277 F       1  UNL1        0.0000
     16 F          -6.5363    1.3455    3.6381 F       1  UNL1        0.0000
     17 F           0.0820    6.9019   -1.7216 F       1  UNL1        0.0000
     18 F           7.8049    0.5948    1.1171 F       1  UNL1        0.0000
     19 C           3.7318   -3.2486    0.1453 C.3     1  UNL1        0.0000
     20 C           4.8376   -2.1981    0.3761 C.ar    1  UNL1        0.0000
     21 C           5.8795   -1.9974   -0.5359 C.ar    1  UNL1        0.0000
     22 C           6.8830   -1.0567   -0.2965 C.ar    1  UNL1        0.0000
     23 C           6.8353   -0.3108    0.8718 C.ar    1  UNL1        0.0000
     24 C           5.8101   -0.4718    1.7967 C.ar    1  UNL1        0.0000
     25 C           4.8124   -1.4071    1.5362 C.ar    1  UNL1        0.0000
     26 C          -2.5662   -3.6209   -0.3507 C.3     1  UNL1        0.0000
     27 C          -3.8169   -2.7837   -0.6869 C.ar    1  UNL1        0.0000
     28 C          -3.8167   -1.9482   -1.8163 C.ar    1  UNL1        0.0000
     29 C          -4.9440   -1.2137   -2.1745 C.ar    1  UNL1        0.0000
     30 C          -6.0860   -1.3124   -1.3889 C.ar    1  UNL1        0.0000
     31 C          -6.1249   -2.1240   -0.2648 C.ar    1  UNL1        0.0000
     32 C          -4.9849   -2.8512    0.0819 C.ar    1  UNL1        0.0000
     33 C          -2.5256    2.1982   -0.2758 C.3     1  UNL1        0.0000
     34 C          -3.5753    1.9852    0.8163 C.ar    1  UNL1        0.0000
     35 C          -4.1796    0.7269    0.9554 C.ar    1  UNL1        0.0000
     36 C          -5.1722    0.5018    1.9032 C.ar    1  UNL1        0.0000
     37 C          -5.5709    1.5562    2.7158 C.ar    1  UNL1        0.0000
     38 C          -5.0028    2.8159    2.6055 C.ar    1  UNL1        0.0000
     39 C          -4.0027    3.0198    1.6524 C.ar    1  UNL1        0.0000
     40 C           3.1186    2.4496    0.0931 C.3     1  UNL1        0.0000
     41 C           2.2916    3.6610   -0.3828 C.ar    1  UNL1        0.0000
     42 C           1.8594    3.7427   -1.7167 C.ar    1  UNL1        0.0000
     43 C           1.1206    4.8294   -2.1764 C.ar    1  UNL1        0.0000
     44 C           0.8003    5.8461   -1.2846 C.ar    1  UNL1        0.0000
     45 C           1.1955    5.7978    0.0433 C.ar    1  UNL1        0.0000
     46 C           1.9389    4.7015    0.4845 C.ar    1  UNL1        0.0000
     47 C          -1.6962    3.4877   -0.0801 C.3     1  UNL1        0.0000
     48 C          -3.2167    2.2388   -1.6520 C.3     1  UNL1        0.0000
     49 C           3.6586    2.6260    1.5184 C.3     1  UNL1        0.0000
     50 C           4.3085    2.1911   -0.8592 C.3     1  UNL1        0.0000
     51 C           3.6646   -4.2180    1.3425 C.3     1  UNL1        0.0000
     52 C           3.9343   -4.0560   -1.1447 C.3     1  UNL1        0.0000
     53 C          -2.6999   -4.3911    0.9706 C.3     1  UNL1        0.0000
     54 C          -2.2956   -4.6182   -1.4977 C.3     1  UNL1        0.0000
     55 H           5.9258   -2.5776   -1.4488 H       1  UNL1        0.0000
     56 H           7.6931   -0.9023   -1.0001 H       1  UNL1        0.0000
     57 H           5.8026    0.1277    2.6998 H       1  UNL1        0.0000
     58 H           3.9957   -1.5140    2.2399 H       1  UNL1        0.0000
     59 H          -2.9179   -1.8588   -2.4145 H       1  UNL1        0.0000
     60 H          -4.9460   -0.5697   -3.0466 H       1  UNL1        0.0000
     61 H          -7.0315   -2.1767    0.3271 H       1  UNL1        0.0000
     62 H          -5.0231   -3.4769    0.9646 H       1  UNL1        0.0000
     63 H          -3.8661   -0.0989    0.3262 H       1  UNL1        0.0000
     64 H          -5.6333   -0.4718    2.0131 H       1  UNL1        0.0000
     65 H          -5.3367    3.6156    3.2571 H       1  UNL1        0.0000
     66 H          -3.5567    4.0041    1.5754 H       1  UNL1        0.0000
     67 H           2.0848    2.9360   -2.4024 H       1  UNL1        0.0000
     68 H           0.7880    4.8933   -3.2063 H       1  UNL1        0.0000
     69 H           0.9250    6.6046    0.7149 H       1  UNL1        0.0000
     70 H           2.2430    4.6739    1.5229 H       1  UNL1        0.0000
     71 H          -2.3258    4.3720   -0.2101 H       1  UNL1        0.0000
     72 H          -1.2380    3.5191    0.9105 H       1  UNL1        0.0000
     73 H          -0.9025    3.5348   -0.8279 H       1  UNL1        0.0000
     74 H          -2.4869    2.3922   -2.4498 H       1  UNL1        0.0000
     75 H          -3.7531    1.3083   -1.8476 H       1  UNL1        0.0000
     76 H          -3.9388    3.0597   -1.6654 H       1  UNL1        0.0000
     77 H           4.3084    3.5044    1.5640 H       1  UNL1        0.0000
     78 H           2.8582    2.7321    2.2514 H       1  UNL1        0.0000
     79 H           4.2456    1.7496    1.7951 H       1  UNL1        0.0000
     80 H           3.9787    2.0164   -1.8828 H       1  UNL1        0.0000
     81 H           4.9777    3.0557   -0.8475 H       1  UNL1        0.0000
     82 H           4.8699    1.3120   -0.5312 H       1  UNL1        0.0000
     83 H           4.6144   -4.7527    1.4292 H       1  UNL1        0.0000
     84 H           3.4705   -3.6956    2.2785 H       1  UNL1        0.0000
     85 H           2.8659   -4.9511    1.1944 H       1  UNL1        0.0000
     86 H           4.8697   -4.6203   -1.0929 H       1  UNL1        0.0000
     87 H           3.1153   -4.7700   -1.2647 H       1  UNL1        0.0000
     88 H           3.9475   -3.4163   -2.0273 H       1  UNL1        0.0000
     89 H          -3.5018   -5.1307    0.8981 H       1  UNL1        0.0000
     90 H          -1.7696   -4.9239    1.1828 H       1  UNL1        0.0000
     91 H          -2.8996   -3.7239    1.8098 H       1  UNL1        0.0000
     92 H          -3.1453   -5.3000   -1.5912 H       1  UNL1        0.0000
     93 H          -2.1521   -4.1056   -2.4486 H       1  UNL1        0.0000
     94 H          -1.3976   -5.2081   -1.2896 H       1  UNL1        0.0000
@<TRIPOS>BOND
     1     1     7    1
     2     1    13    1
     3     2    14    1
     4     2     8    1
     5     2     1    1
     6     3     9    1
     7     4    19    1
     8     4     7    1
     9     5    40    1
    10     5    13    1
    11     6    11    1
    12     8     4    1
    13     9     1    1
    14    10     2    1
    15    10     3    1
    16    11     1    1
    17    12     2    1
    18    12     6    1
    19    14     5    1
    20    15    30    1
    21    17    44    1
    22    19    20    1
    23    19    51    1
    24    20    25   ar
    25    21    22   ar
    26    21    20   ar
    27    22    23   ar
    28    23    18    1
    29    23    24   ar
    30    24    57    1
    31    25    24   ar
    32    25    58    1
    33    26     3    1
    34    26    53    1
    35    27    26    1
    36    27    32   ar
    37    28    27   ar
    38    29    28   ar
    39    29    30   ar
    40    30    31   ar
    41    31    32   ar
    42    31    61    1
    43    32    62    1
    44    33     6    1
    45    33    47    1
    46    33    34    1
    47    34    35   ar
    48    34    39   ar
    49    35    36   ar
    50    36    64    1
    51    36    37   ar
    52    37    16    1
    53    38    37   ar
    54    38    65    1
    55    39    38   ar
    56    40    49    1
    57    41    40    1
    58    41    46   ar
    59    42    41   ar
    60    43    42   ar
    61    43    44   ar
    62    44    45   ar
    63    45    46   ar
    64    45    69    1
    65    46    70    1
    66    47    72    1
    67    48    33    1
    68    49    77    1
    69    49    79    1
    70    49    78    1
    71    50    81    1
    72    50    82    1
    73    50    40    1
    74    51    83    1
    75    51    84    1
    76    52    86    1
    77    52    19    1
    78    53    90    1
    79    53    91    1
    80    54    94    1
    81    54    26    1
    82    55    21    1
    83    56    22    1
    84    59    28    1
    85    60    29    1
    86    63    35    1
    87    66    39    1
    88    67    42    1
    89    68    43    1
    90    71    47    1
    91    73    47    1
    92    74    48    1
    93    75    48    1
    94    76    48    1
    95    80    50    1
    96    85    51    1
    97    87    52    1
    98    88    52    1
    99    89    53    1
   100    92    54    1
   101    93    54    1
