@<TRIPOS>MOLECULE
RhRh_ACyPentyl4_23_sp
 126 141 0 0 0
SMALL
GASTEIGER

@<TRIPOS>ATOM
      1 Rh          0.6572   -0.1018   -1.5057 Rh      1  UNL1        0.0000
      2 Rh         -0.1626    0.1137    0.7303 Rh      1  UNL1        0.0000
      3 C           1.9227   -1.8681    0.3890 C.3     1  UNL1        0.0000
      4 C           2.0301    1.8700    0.0899 C.3     1  UNL1        0.0000
      5 C          -1.5061    1.7915   -1.1998 C.3     1  UNL1        0.0000
      6 C          -1.5162   -1.9012   -0.8410 C.3     1  UNL1        0.0000
      7 O           1.9305   -1.5714   -0.8472 O.3     1  UNL1        0.0000
      8 O           1.2019   -1.3352    1.2865 O.3     1  UNL1        0.0000
      9 O          -0.7825   -1.5556   -1.8169 O.3     1  UNL1        0.0000
     10 O          -1.5069   -1.3834    0.3199 O.3     1  UNL1        0.0000
     11 O          -1.5137    1.4958    0.0359 O.3     1  UNL1        0.0000
     12 O          -0.6953    1.3442   -2.0662 O.3     1  UNL1        0.0000
     13 O           1.2378    1.5778    1.0399 O.3     1  UNL1        0.0000
     14 O           2.0666    1.3244   -1.0538 O.3     1  UNL1        0.0000
     15 N           4.0441   -3.0149    0.1050 N.am    1  UNL1        0.0000
     16 N          -3.0391   -3.4500    0.2330 N.am    1  UNL1        0.0000
     17 N          -3.9008    2.0876   -1.2855 N.am    1  UNL1        0.0000
     18 N           2.4428    4.1037    0.9468 N.am    1  UNL1        0.0000
     19 C           2.7486   -3.0952    0.7942 C.3     1  UNL1        0.0000
     20 C           1.8802   -4.3324    0.3695 C.3     1  UNL1        0.0000
     21 C           1.9067   -5.2774    1.5739 C.3     1  UNL1        0.0000
     22 C           1.9207   -4.3081    2.7635 C.3     1  UNL1        0.0000
     23 C           2.9317   -3.2351    2.3323 C.3     1  UNL1        0.0000
     24 C           4.8033   -4.0637   -0.4521 C.2     1  UNL1        0.0000
     25 C           6.0534   -3.4254   -0.9642 C.ar    1  UNL1        0.0000
     26 C           7.1243   -3.9869   -1.6404 C.ar    1  UNL1        0.0000
     27 C           8.1777   -3.1340   -1.9952 C.ar    1  UNL1        0.0000
     28 C           8.1467   -1.7718   -1.6724 C.ar    1  UNL1        0.0000
     29 C           7.0619   -1.2158   -0.9824 C.ar    1  UNL1        0.0000
     30 C           6.0236   -2.0692   -0.6426 C.ar    1  UNL1        0.0000
     31 C           4.7574   -1.8068    0.0874 C.2     1  UNL1        0.0000
     32 C          -2.5054   -3.0533   -1.0781 C.3     1  UNL1        0.0000
     33 C          -3.6200   -2.6293   -2.0732 C.3     1  UNL1        0.0000
     34 C          -2.9862   -2.7603   -3.4637 C.3     1  UNL1        0.0000
     35 C          -1.9162   -3.8742   -3.3386 C.3     1  UNL1        0.0000
     36 C          -1.8260   -4.2268   -1.8369 C.3     1  UNL1        0.0000
     37 C          -4.0482   -2.7162    0.9082 C.2     1  UNL1        0.0000
     38 C          -4.0094   -3.1622    2.3263 C.ar    1  UNL1        0.0000
     39 C          -4.8141   -2.8003    3.3955 C.ar    1  UNL1        0.0000
     40 C          -4.5118   -3.3617    4.6418 C.ar    1  UNL1        0.0000
     41 C          -3.4379   -4.2491    4.7953 C.ar    1  UNL1        0.0000
     42 C          -2.6313   -4.6043    3.7076 C.ar    1  UNL1        0.0000
     43 C          -2.9435   -4.0438    2.4783 C.ar    1  UNL1        0.0000
     44 C          -2.2690   -4.1835    1.1614 C.2     1  UNL1        0.0000
     45 C          -2.6341    2.7382   -1.6760 C.3     1  UNL1        0.0000
     46 C          -2.4879    4.1612   -1.0445 C.3     1  UNL1        0.0000
     47 C          -1.8242    5.0530   -2.1241 C.3     1  UNL1        0.0000
     48 C          -1.4889    4.1123   -3.2937 C.3     1  UNL1        0.0000
     49 C          -2.5450    3.0093   -3.1935 C.3     1  UNL1        0.0000
     50 C          -4.5307    2.2118   -0.0175 C.2     1  UNL1        0.0000
     51 C          -5.6896    1.2771   -0.0472 C.ar    1  UNL1        0.0000
     52 C          -6.6615    1.0359    0.9109 C.ar    1  UNL1        0.0000
     53 C          -7.6465    0.0915    0.6006 C.ar    1  UNL1        0.0000
     54 C          -7.6454   -0.5782   -0.6294 C.ar    1  UNL1        0.0000
     55 C          -6.6554   -0.3300   -1.5855 C.ar    1  UNL1        0.0000
     56 C          -5.6852    0.6056   -1.2652 C.ar    1  UNL1        0.0000
     57 C          -4.4935    1.0489   -2.0353 C.2     1  UNL1        0.0000
     58 C           3.1187    2.9061    0.4264 C.3     1  UNL1        0.0000
     59 C           4.0249    3.2434   -0.7824 C.3     1  UNL1        0.0000
     60 C           5.2157    2.2883   -0.6451 C.3     1  UNL1        0.0000
     61 C           5.4719    2.2780    0.8695 C.3     1  UNL1        0.0000
     62 C           4.0646    2.2219    1.4825 C.3     1  UNL1        0.0000
     63 C           3.0145    5.0707    1.7980 C.2     1  UNL1        0.0000
     64 C           1.9713    6.1242    1.9682 C.ar    1  UNL1        0.0000
     65 C           1.9823    7.2656    2.7529 C.ar    1  UNL1        0.0000
     66 C           0.8460    8.0840    2.7120 C.ar    1  UNL1        0.0000
     67 C          -0.2505    7.7578    1.9055 C.ar    1  UNL1        0.0000
     68 C          -0.2476    6.6052    1.1091 C.ar    1  UNL1        0.0000
     69 C           0.8811    5.8014    1.1599 C.ar    1  UNL1        0.0000
     70 C           1.2082    4.5406    0.4412 C.2     1  UNL1        0.0000
     71 H           0.8531   -3.9930    0.2234 H       1  UNL1        0.0000
     72 H           2.2265   -4.7761   -0.5605 H       1  UNL1        0.0000
     73 H           2.8224   -5.8783    1.5548 H       1  UNL1        0.0000
     74 H           1.0436   -5.9462    1.5756 H       1  UNL1        0.0000
     75 H           2.1945   -4.7794    3.7123 H       1  UNL1        0.0000
     76 H           0.9273   -3.8604    2.8812 H       1  UNL1        0.0000
     77 H           3.9499   -3.5939    2.5127 H       1  UNL1        0.0000
     78 H           2.8111   -2.2778    2.8389 H       1  UNL1        0.0000
     79 H           7.1369   -5.0442   -1.8816 H       1  UNL1        0.0000
     80 H           9.0339   -3.5340   -2.5289 H       1  UNL1        0.0000
     81 H           8.9792   -1.1382   -1.9611 H       1  UNL1        0.0000
     82 H           7.0272   -0.1630   -0.7253 H       1  UNL1        0.0000
     83 H          -4.4407   -3.3421   -1.9419 H       1  UNL1        0.0000
     84 H          -4.0141   -1.6380   -1.8764 H       1  UNL1        0.0000
     85 H          -2.5236   -1.8121   -3.7429 H       1  UNL1        0.0000
     86 H          -3.7456   -2.9845   -4.2178 H       1  UNL1        0.0000
     87 H          -2.1780   -4.7631   -3.9202 H       1  UNL1        0.0000
     88 H          -0.9514   -3.5182   -3.7046 H       1  UNL1        0.0000
     89 H          -0.8079   -4.4076   -1.4987 H       1  UNL1        0.0000
     90 H          -2.4057   -5.1262   -1.6103 H       1  UNL1        0.0000
     91 H          -1.7915   -5.2824    3.8136 H       1  UNL1        0.0000
     92 H          -1.9160    4.1080   -0.1208 H       1  UNL1        0.0000
     93 H          -3.4800    4.5302   -0.7877 H       1  UNL1        0.0000
     94 H          -2.5286    5.8260   -2.4502 H       1  UNL1        0.0000
     95 H          -0.9326    5.5527   -1.7423 H       1  UNL1        0.0000
     96 H          -1.5029    4.6138   -4.2657 H       1  UNL1        0.0000
     97 H          -0.4953    3.6777   -3.1539 H       1  UNL1        0.0000
     98 H          -3.5208    3.3849   -3.5217 H       1  UNL1        0.0000
     99 H          -2.3136    2.1150   -3.7648 H       1  UNL1        0.0000
    100 H          -6.6490    1.5626    1.8589 H       1  UNL1        0.0000
    101 H          -8.4263   -0.1275    1.3235 H       1  UNL1        0.0000
    102 H          -8.4226   -1.3064   -0.8386 H       1  UNL1        0.0000
    103 H          -6.6327   -0.8515   -2.5360 H       1  UNL1        0.0000
    104 H           4.3672    4.2764   -0.6623 H       1  UNL1        0.0000
    105 H           3.4854    3.1609   -1.7262 H       1  UNL1        0.0000
    106 H           4.9248    1.2873   -0.9788 H       1  UNL1        0.0000
    107 H           6.0804    2.6117   -1.2334 H       1  UNL1        0.0000
    108 H           5.9710    3.2049    1.1713 H       1  UNL1        0.0000
    109 H           6.0825    1.4316    1.1948 H       1  UNL1        0.0000
    110 H           3.7551    1.1861    1.6086 H       1  UNL1        0.0000
    111 H           3.9987    2.7138    2.4500 H       1  UNL1        0.0000
    112 H          -1.0928    6.3459    0.4824 H       1  UNL1        0.0000
    113 O           0.5833    3.9786   -0.4383 O.2     1  UNL1        0.0000
    114 O           4.1357    5.0524    2.2650 O.2     1  UNL1        0.0000
    115 O          -4.0814    0.5941   -3.0857 O.2     1  UNL1        0.0000
    116 O          -4.1965    2.9412    0.8909 O.2     1  UNL1        0.0000
    117 O          -1.2454   -4.7931    0.9196 O.2     1  UNL1        0.0000
    118 O          -4.7868   -1.8880    0.4209 O.2     1  UNL1        0.0000
    119 O           4.3766   -0.7740    0.6053 O.2     1  UNL1        0.0000
    120 O           4.5124   -5.2422   -0.4840 O.2     1  UNL1        0.0000
    121 H          -5.6340   -2.1031    3.2608 H       1  UNL1        0.0000
    122 H          -5.1135   -3.1026    5.5072 H       1  UNL1        0.0000
    123 H          -3.2269   -4.6622    5.7765 H       1  UNL1        0.0000
    124 H           2.8396    7.5058    3.3722 H       1  UNL1        0.0000
    125 H           0.8128    8.9856    3.3153 H       1  UNL1        0.0000
    126 H          -1.1177    8.4102    1.8973 H       1  UNL1        0.0000
@<TRIPOS>BOND
     1     1    14    1
     2     1     7    1
     3     1     2    1
     4     2    13    1
     5     2     8    1
     6     3    19    1
     7     3     8    1
     8     4    58    1
     9     4    13    1
    10     5    11    1
    11     6    10    1
    12     7     3    1
    13     9     1    1
    14     9     6    1
    15    10     2    1
    16    11     2    1
    17    12     1    1
    18    12     5    1
    19    14     4    1
    20    15    19    1
    21    16    37   am
    22    16    44   am
    23    17    50   am
    24    18    63   am
    25    19    23    1
    26    20    19    1
    27    20    21    1
    28    21    74    1
    29    21    22    1
    30    22    76    1
    31    22    75    1
    32    23    77    1
    33    23    22    1
    34    23    78    1
    35    24    15   am
    36    25    30   ar
    37    25    24    1
    38    26    25   ar
    39    27    28   ar
    40    27    26   ar
    41    28    29   ar
    42    29    82    1
    43    29    30   ar
    44    30    31    1
    45    31    15   am
    46    31   119    2
    47    32     6    1
    48    32    16    1
    49    33    83    1
    50    33    84    1
    51    33    32    1
    52    34    35    1
    53    34    33    1
    54    35    36    1
    55    36    90    1
    56    36    89    1
    57    36    32    1
    58    37    38    1
    59    38    43   ar
    60    38    39   ar
    61    39    40   ar
    62    40    41   ar
    63    40   122    1
    64    41   123    1
    65    42    91    1
    66    42    41   ar
    67    43    42   ar
    68    44    43    1
    69    45    17    1
    70    45     5    1
    71    45    46    1
    72    46    93    1
    73    46    92    1
    74    47    95    1
    75    47    46    1
    76    48    49    1
    77    48    97    1
    78    48    47    1
    79    49    45    1
    80    50   116    2
    81    51    50    1
    82    51    52   ar
    83    52   100    1
    84    53    52   ar
    85    53   101    1
    86    54    53   ar
    87    55    56   ar
    88    55    54   ar
    89    56    51   ar
    90    57    17   am
    91    57    56    1
    92    58    18    1
    93    58    62    1
    94    59   104    1
    95    59    60    1
    96    59    58    1
    97    60    61    1
    98    61   108    1
    99    61   109    1
   100    61    62    1
   101    62   110    1
   102    62   111    1
   103    63    64    1
   104    63   114    2
   105    64    65   ar
   106    65   124    1
   107    66    65   ar
   108    66   125    1
   109    67    66   ar
   110    68    69   ar
   111    68    67   ar
   112    69    64   ar
   113    70    18   am
   114    70    69    1
   115    71    20    1
   116    72    20    1
   117    73    21    1
   118    79    26    1
   119    80    27    1
   120    81    28    1
   121    85    34    1
   122    86    34    1
   123    87    35    1
   124    88    35    1
   125    94    47    1
   126    96    48    1
   127    98    49    1
   128    99    49    1
   129   102    54    1
   130   103    55    1
   131   105    59    1
   132   106    60    1
   133   107    60    1
   134   112    68    1
   135   113    70    2
   136   115    57    2
   137   117    44    2
   138   118    37    2
   139   120    24    2
   140   121    39    1
   141   126    67    1
