@<TRIPOS>MOLECULE
S_SiI2_8_acyclic
28   27    1
SMALL
USER_CHARGES


@<TRIPOS>ATOM
      1 S1         -0.4370   -0.9198    0.0679 S.3       1 ****        0.0000 
      2 Si2         0.4039   -2.7609   -0.7405 Si        1 ****        0.0000 
      3 I3          2.8749   -2.3814   -0.3710 I         1 ****        0.0000 
      4 I4          0.1379   -2.8429   -3.2514 I         1 ****        0.0000 
      5 Si5        -2.5037   -1.0851    0.7474 Si        1 ****        0.0000 
      6 I6         -3.3664    1.2516    0.3183 I         1 ****        0.0000 
      7 I7         -2.5578   -1.3608    3.2585 I         1 ****        0.0000 
      8 Si8        -0.0709   -4.8755    0.2163 Si        1 ****        0.0000 
      9 I9         -1.7818   -6.1046   -1.1828 I         1 ****        0.0000 
     10 I10        -0.7634   -4.6504    2.6321 I         1 ****        0.0000 
     11 Si11       -4.0869   -2.5470   -0.2429 Si        1 ****        0.0000 
     12 I12        -3.5674   -3.0181   -2.6653 I         1 ****        0.0000 
     13 I13        -4.3136   -4.6552    1.1357 I         1 ****        0.0000 
     14 Si14       -6.1997   -1.5132   -0.1687 Si        1 ****        0.0000 
     15 I15        -6.4309    0.1306   -2.0821 I         1 ****        0.0000 
     16 I16        -6.5415   -0.3386    2.0489 I         1 ****        0.0000 
     17 Si17        1.8741   -6.1970    0.1468 Si        1 ****        0.0000 
     18 I18         3.4283   -5.5657    2.0450 I         1 ****        0.0000 
     19 I19         3.0445   -5.9297   -2.0838 I         1 ****        0.0000 
     20 Si20        1.2358   -8.4463    0.3854 Si        1 ****        0.0000 
     21 I21         3.1709   -9.7655    1.3391 I         1 ****        0.0000 
     22 I22        -0.7482   -8.6389    1.9432 I         1 ****        0.0000 
     23 I23         0.6214   -9.4010   -1.8760 I         1 ****        0.0000 
     24 Si24       -7.8396   -3.1830   -0.3829 Si        1 ****        0.0000 
     25 I25        -8.3403   -4.1796    1.8883 I         1 ****        0.0000 
     26 I26        -9.9555   -2.1600   -1.3170 I         1 ****        0.0000 
     27 I27        -7.0405   -5.0062   -1.9445 I         1 ****        0.0000 
     28 H28         0.4324    0.6472    0.0019 H         1 ****        0.0000 
@<TRIPOS>BOND
     1    1    2 1    
     2    1    5 1    
     3    1   28 1    
     4    2    3 1    
     5    2    4 1    
     6    2    8 1    
     7    5    6 1    
     8    5    7 1    
     9    5   11 1    
    10    8    9 1    
    11    8   10 1    
    12    8   17 1    
    13   11   12 1    
    14   11   13 1    
    15   11   14 1    
    16   14   15 1    
    17   14   16 1    
    18   14   24 1    
    19   17   18 1    
    20   17   19 1    
    21   17   20 1    
    22   20   21 1    
    23   20   22 1    
    24   20   23 1    
    25   24   25 1    
    26   24   26 1    
    27   24   27 1    
@<TRIPOS>SUBSTRUCTURE
     1 ****        1 GROUP             0       ****    0 ROOT    
