# Molecule Name
# Created by GaussView 6.0.16
#

#
#

@<TRIPOS>MOLECULE
Molecule Name
35 35
SMALL
NO_CHARGES


@<TRIPOS>ATOM
1 S1     0.1946    -1.9252     2.0733 S
2 Si2     1.4028    -2.5095     0.3611 Si
3 Si3     0.4143     0.2022     2.5056 Si
4 Si4    -0.6275     1.4833     0.8402 Si
5 Si5    -0.0650     3.7338     0.5024 Si
6 Si6     1.4008     1.0445    -0.9962 Si
7 Si7     0.9218    -1.1876    -1.5011 Si
8 Si8    -0.1121     4.8145    -1.5799 Si
9 Si9     2.6806     2.2156    -2.5573 Si
10 Si10     1.7285     5.6491    -2.7696 Si
11 Si11     1.9230     5.3036    -5.0813 Si
12 Si12     1.8172     3.0274    -4.5685 Si
13 F13     1.0846    -4.1888    -0.0147 F
14 F14     3.0938    -2.3047     0.7625 F
15 F15    -0.7612    -1.3462    -1.9538 F
16 F16     1.9335    -1.7112    -2.8296 F
17 F17     2.2485     1.0820     0.5343 F
18 F18    -0.3563     0.6584    -0.6792 F
19 F19    -0.1178     1.8914    -0.7985 F
20 F20    -2.3470     1.4322     1.1613 F
21 F21     2.1106     0.6165     2.6208 F
22 F22    -0.3779     0.5436     4.0282 F
23 F23    -1.1127     4.6599     1.5546 F
24 F24     1.5641     3.9244     1.1124 F
25 F25    -1.6837     5.0189    -2.3220 F
26 F26    -0.2154     6.3462    -0.7399 F
27 F27     2.9727     6.5412    -1.9218 F
28 F28     0.8541     7.1348    -3.0703 F
29 F29     0.9322     6.7458    -5.1088 F
30 F30     0.9117     4.8298    -6.4286 F
31 F31     2.6349     2.1734    -5.8586 F
32 F32     0.1295     2.5680    -4.6236 F
33 F33     3.3494     3.5952    -1.7135 F
34 F34     4.0215     1.1733    -2.9795 F
35 H35    -0.5661    -2.7443     2.7562 H
@<TRIPOS>BOND
1 1 2 1
2 1 3 1
3 1 35 1
4 2 7 1
5 2 13 1
6 2 14 1
7 3 4 1
8 3 21 1
9 3 22 1
10 4 5 1
11 4 18 1
12 4 20 1
13 5 8 1
14 5 23 1
15 5 24 1
16 6 7 1
17 6 9 1
18 6 17 1
19 6 19 1
20 7 15 1
21 7 16 1
22 8 10 1
23 8 25 1
24 8 26 1
25 9 12 1
26 9 33 1
27 9 34 1
28 10 11 1
29 10 27 1
30 10 28 1
31 11 12 1
32 11 29 1
33 11 30 1
34 12 31 1
35 12 32 1
