# Molecule Name
# Created by GaussView 6.0.16
#

#
#

@<TRIPOS>MOLECULE
Molecule Name
32 32
SMALL
NO_CHARGES


@<TRIPOS>ATOM
1 S1    -0.3076    -1.7303     1.9247 S
2 Si2     1.2804    -2.3864     0.5503 Si
3 H3     0.9622    -3.7563     0.1227 H
4 H4     2.5373    -2.3628     1.3122 H
5 Si5     0.1460     0.3166     2.4261 Si
6 H6     1.5723     0.4144     2.7678 H
7 H7    -0.6417     0.8442     3.5496 H
8 Si8    -0.3693     1.4489     0.4855 Si
9 Si9     0.6399     3.5206     0.4014 Si
10 H10     0.2502     4.4582     1.4643 H
11 H11     2.0932     3.3127     0.4763 H
12 Si12     2.1708     1.1845    -0.9649 Si
13 Si13     1.6432    -1.0791    -1.4074 Si
14 H14     0.4567    -1.1138    -2.2745 H
15 H15     2.7899    -1.6906    -2.0944 H
16 Si16     0.0214     4.2661    -1.6943 Si
17 H17    -1.3306     4.8423    -1.6610 H
18 Si18     3.1580     2.2405    -2.8582 Si
19 H19     4.4215     1.5387    -3.1263 H
20 H20     0.9452     1.8815    -0.5489 H
21 H21     3.1672     1.2419     0.1144 H
22 H22     0.1702     0.6857    -0.6491 H
23 H23    -1.8300     1.5604     0.3630 H
24 H24     2.2919     2.1640    -4.0435 H
25 H25     0.0445     3.1192    -2.6135 H
26 Si26     1.6077     5.7307    -2.4897 Si
27 H27     1.2633     6.0411    -3.8847 H
28 H28     1.7112     6.9903    -1.7390 H
29 Si29     3.6041     4.5097    -2.3632 Si
30 H30     4.1715     4.5374    -1.0074 H
31 H31     4.5539     5.1176    -3.3061 H
32 H32    -0.2898    -2.4945     2.9885 H
@<TRIPOS>BOND
1 1 2 1
2 1 5 1
3 1 32 1
4 2 3 1
5 2 4 1
6 2 13 1
7 5 6 1
8 5 7 1
9 5 8 1
10 8 9 1
11 8 22 1
12 8 23 1
13 9 10 1
14 9 11 1
15 9 16 1
16 12 13 1
17 12 18 1
18 12 20 1
19 12 21 1
20 13 14 1
21 13 15 1
22 16 17 1
23 16 25 1
24 16 26 1
25 18 19 1
26 18 24 1
27 18 29 1
28 26 27 1
29 26 28 1
30 26 29 1
31 29 30 1
32 29 31 1
