# Molecule Name
# Created by GaussView 6.0.16
#

#
#

@<TRIPOS>MOLECULE
Molecule Name
35 35
SMALL
NO_CHARGES


@<TRIPOS>ATOM
1 S1     0.1946    -1.9252     2.0733 S
2 Si2     1.4028    -2.5095     0.3611 Si
3 H3     1.1355    -3.9201     0.0454 H
4 H4     2.8233    -2.3375     0.6983 H
5 Si5     0.4143     0.2022     2.5056 Si
6 H6     1.8392     0.5502     2.6024 H
7 H7    -0.2511     0.4890     3.7846 H
8 Si8    -0.6275     1.4833     0.8402 Si
9 Si9    -0.0650     3.7338     0.5024 Si
10 Si10     1.4008     1.0445    -0.9962 Si
11 Si11     0.9218    -1.1876    -1.5011 Si
12 H12    -0.4919    -1.3208    -1.8814 H
13 H13     1.7716    -1.6274    -2.6170 H
14 Si14    -0.1121     4.8145    -1.5799 Si
15 Si15     2.6806     2.2156    -2.5573 Si
16 Si16     1.7285     5.6491    -2.7696 Si
17 Si17     1.9230     5.3036    -5.0813 Si
18 H18     1.0907     6.5151    -5.1044 H
19 H19     1.0735     4.9056    -6.2131 H
20 Si20     1.8172     3.0274    -4.5685 Si
21 H21    -0.3997     0.7904    -0.4361 H
22 H22    -2.0719     1.4404     1.1099 H
23 H23     0.1252     1.7559    -0.8301 H
24 H24     2.1129     1.0760     0.2894 H
25 H25    -0.9451     4.5117     1.3863 H
26 H26     1.3035     3.8939     1.0148 H
27 H27    -0.1989     6.1012    -0.8743 H
28 H28     2.7736     6.3984    -2.0575 H
29 H29    -1.4323     4.9862    -2.2033 H
30 H30     0.9940     6.8971    -3.0222 H
31 H31     2.5041     2.3100    -5.6522 H
32 H32     0.3994     2.6415    -4.6148 H
33 H33     3.2424     3.3745    -1.8485 H
34 H34     3.8069     1.3401    -2.9119 H
35 H35    -0.5661    -2.7443     2.7562 H
@<TRIPOS>BOND
1 1 2 1
2 1 5 1
3 1 35 1
4 2 3 1
5 2 4 1
6 2 11 1
7 5 6 1
8 5 7 1
9 5 8 1
10 8 9 1
11 8 21 1
12 8 22 1
13 9 14 1
14 9 25 1
15 9 26 1
16 10 11 1
17 10 15 1
18 10 23 1
19 10 24 1
20 11 12 1
21 11 13 1
22 14 16 1
23 14 27 1
24 14 29 1
25 15 20 1
26 15 33 1
27 15 34 1
28 16 17 1
29 16 28 1
30 16 30 1
31 17 18 1
32 17 19 1
33 17 20 1
34 20 31 1
35 20 32 1
