@<TRIPOS>MOLECULE
S_SiI2_10_acyclic
34   33    1
SMALL
USER_CHARGES


@<TRIPOS>ATOM
      1 S1         -0.1416   -0.3522    0.0004 S.3       1 ****        0.0000 
      2 Si2         1.0441   -1.7882   -1.1107 Si        1 ****        0.0000 
      3 I3          3.4264   -1.3111   -0.4232 I         1 ****        0.0000 
      4 I4          1.0129   -1.4653   -3.6223 I         1 ****        0.0000 
      5 Si5        -2.1008   -0.1678   -0.9218 Si        1 ****        0.0000 
      6 I6         -2.5872   -1.5838   -2.9546 I         1 ****        0.0000 
      7 I7         -2.3531    2.2617   -1.5678 I         1 ****        0.0000 
      8 Si8         0.5843   -4.0055   -0.4191 Si        1 ****        0.0000 
      9 I9         -1.5172   -4.8728   -1.5142 I         1 ****        0.0000 
     10 I10         0.3420   -3.9746    2.0968 I         1 ****        0.0000 
     11 Si11       -3.7143   -0.6761    0.7189 Si        1 ****        0.0000 
     12 I12        -3.3315   -3.0522    1.4739 I         1 ****        0.0000 
     13 I13        -3.3799    0.8601    2.6991 I         1 ****        0.0000 
     14 Si14       -5.9099   -0.4339   -0.1214 Si        1 ****        0.0000 
     15 I15        -5.8909    0.6068   -2.4282 I         1 ****        0.0000 
     16 I16        -7.2694    1.0782    1.3882 I         1 ****        0.0000 
     17 Si17        2.3770   -5.4290   -0.9629 Si        1 ****        0.0000 
     18 I18         4.3025   -5.0671    0.6399 I         1 ****        0.0000 
     19 I19         3.1712   -4.9197   -3.3095 I         1 ****        0.0000 
     20 Si20        1.7187   -7.6905   -0.8615 Si        1 ****        0.0000 
     21 I21         3.7935   -9.1100   -1.1490 I         1 ****        0.0000 
     22 I22         0.1414   -8.2306   -2.7665 I         1 ****        0.0000 
     23 Si23       -6.9527   -2.5350   -0.2776 Si        1 ****        0.0000 
     24 I24        -9.1890   -2.2211   -1.4213 I         1 ****        0.0000 
     25 I25        -5.5476   -4.0742   -1.7147 I         1 ****        0.0000 
     26 Si26        0.7199   -8.2607    1.2049 Si        1 ****        0.0000 
     27 I27        -1.6419   -7.3684    1.3990 I         1 ****        0.0000 
     28 I28         0.6161  -10.7823    1.3695 I         1 ****        0.0000 
     29 I29         2.1219   -7.3985    3.1240 I         1 ****        0.0000 
     30 Si30       -7.2929   -3.4942    1.8582 Si        1 ****        0.0000 
     31 I31        -6.1992   -5.7772    1.9578 I         1 ****        0.0000 
     32 I32        -6.3496   -2.0256    3.6934 I         1 ****        0.0000 
     33 I33        -9.7735   -3.7755    2.2602 I         1 ****        0.0000 
     34 H34         0.5141    0.7816    0.0022 H         1 ****        0.0000 
@<TRIPOS>BOND
     1    1    2 1    
     2    1    5 1    
     3    1   34 1    
     4    2    3 1    
     5    2    4 1    
     6    2    8 1    
     7    5    6 1    
     8    5    7 1    
     9    5   11 1    
    10    8    9 1    
    11    8   10 1    
    12    8   17 1    
    13   11   12 1    
    14   11   13 1    
    15   11   14 1    
    16   14   15 1    
    17   14   16 1    
    18   14   23 1    
    19   17   18 1    
    20   17   19 1    
    21   17   20 1    
    22   20   21 1    
    23   20   22 1    
    24   20   26 1    
    25   23   24 1    
    26   23   25 1    
    27   23   30 1    
    28   26   27 1    
    29   26   28 1    
    30   26   29 1    
    31   30   31 1    
    32   30   32 1    
    33   30   33 1    
@<TRIPOS>SUBSTRUCTURE
     1 ****        1 GROUP             0       ****    0 ROOT    
