@<TRIPOS>MOLECULE
S_SiI2_12_acyclic
40   39    1
SMALL
USER_CHARGES


@<TRIPOS>ATOM
      1 S1         -0.1425   -0.3533    0.0011 S.3       1 ****        0.0000 
      2 Si2         0.9453   -1.8347   -1.1488 Si        1 ****        0.0000 
      3 I3          3.3749   -1.3532   -0.6609 I         1 ****        0.0000 
      4 I4          0.7196   -1.5943   -3.6590 I         1 ****        0.0000 
      5 Si5        -2.1631   -0.1776   -0.7801 Si        1 ****        0.0000 
      6 I6         -2.8192   -1.6664   -2.7104 I         1 ****        0.0000 
      7 I7         -2.4285    2.2268   -1.5088 I         1 ****        0.0000 
      8 Si8         0.5276   -4.0225   -0.3497 Si        1 ****        0.0000 
      9 I9         -1.6577   -4.9066   -1.2489 I         1 ****        0.0000 
     10 I10         0.4468   -3.8974    2.1725 I         1 ****        0.0000 
     11 Si11       -3.6599   -0.5915    0.9925 Si        1 ****        0.0000 
     12 I12        -3.2701   -2.9505    1.8056 I         1 ****        0.0000 
     13 I13        -3.1495    1.0089    2.8831 I         1 ****        0.0000 
     14 Si14       -5.9091   -0.3240    0.3026 Si        1 ****        0.0000 
     15 I15        -6.0364    0.6201   -2.0407 I         1 ****        0.0000 
     16 I16        -7.1268    1.2719    1.8454 I         1 ****        0.0000 
     17 Si17        2.2813   -5.4704   -0.9724 Si        1 ****        0.0000 
     18 I18         4.3124   -5.0789    0.4858 I         1 ****        0.0000 
     19 I19         2.9228   -5.0211   -3.3767 I         1 ****        0.0000 
     20 Si20        1.6319   -7.7274   -0.7834 Si        1 ****        0.0000 
     21 I21         3.6672   -9.1630   -1.2230 I         1 ****        0.0000 
     22 I22        -0.1025   -8.2548   -2.5505 I         1 ****        0.0000 
     23 Si23       -7.0141   -2.3960    0.3012 Si        1 ****        0.0000 
     24 I24        -9.2701   -2.0723   -0.7961 I         1 ****        0.0000 
     25 I25        -5.7144   -4.0482   -1.1087 I         1 ****        0.0000 
     26 Si26        0.8068   -8.2393    1.3689 Si        1 ****        0.0000 
     27 I27        -1.5607   -7.3984    1.6826 I         1 ****        0.0000 
     28 I28         2.2945   -7.2382    3.1521 I         1 ****        0.0000 
     29 Si29       -7.2605   -3.2202    2.5035 Si        1 ****        0.0000 
     30 I30        -6.2991   -5.5602    2.6389 I         1 ****        0.0000 
     31 I31        -6.0699   -1.7433    4.1824 I         1 ****        0.0000 
     32 Si32       -9.5347   -3.2913    3.0869 Si        1 ****        0.0000 
     33 I33       -10.7494   -4.9468    1.6086 I         1 ****        0.0000 
     34 I34        -9.7238   -4.0450    5.4935 I         1 ****        0.0000 
     35 I35       -10.5529   -0.9862    2.8633 I         1 ****        0.0000 
     36 Si36        0.8280  -10.5747    1.6377 Si        1 ****        0.0000 
     37 I37        -0.8848  -11.2140    3.3860 I         1 ****        0.0000 
     38 I38         0.2611  -11.7250   -0.5412 I         1 ****        0.0000 
     39 I39         3.1205  -11.3134    2.4086 I         1 ****        0.0000 
     40 H40         0.5141    0.7816    0.0022 H         1 ****        0.0000 
@<TRIPOS>BOND
     1    1    2 1    
     2    1    5 1    
     3    1   40 1    
     4    2    3 1    
     5    2    4 1    
     6    2    8 1    
     7    5    6 1    
     8    5    7 1    
     9    5   11 1    
    10    8    9 1    
    11    8   10 1    
    12    8   17 1    
    13   11   12 1    
    14   11   13 1    
    15   11   14 1    
    16   14   15 1    
    17   14   16 1    
    18   14   23 1    
    19   17   18 1    
    20   17   19 1    
    21   17   20 1    
    22   20   21 1    
    23   20   22 1    
    24   20   26 1    
    25   23   24 1    
    26   23   25 1    
    27   23   29 1    
    28   26   27 1    
    29   26   28 1    
    30   26   36 1    
    31   29   30 1    
    32   29   31 1    
    33   29   32 1    
    34   32   33 1    
    35   32   34 1    
    36   32   35 1    
    37   36   37 1    
    38   36   38 1    
    39   36   39 1    
@<TRIPOS>SUBSTRUCTURE
     1 ****        1 GROUP             0       ****    0 ROOT    
