# Molecule Name
# Created by GaussView 6.0.16
#

#
#

@<TRIPOS>MOLECULE
Molecule Name
38 38
SMALL
NO_CHARGES


@<TRIPOS>ATOM
1 S1    -1.5625    -1.3020     1.0406 S
2 Si2     0.5300    -1.9095     1.1282 Si
3 Si3    -1.8132     0.8450     1.3943 Si
4 Si4    -0.5165     2.1958    -0.0185 Si
5 Si5    -0.0533     4.3355     0.8380 Si
6 Si6     1.4251     1.0761    -1.1132 Si
7 Si7     1.6187    -1.2282    -0.8256 Si
8 Si8     0.1812     5.9187    -0.8763 Si
9 Si9     3.0412     2.1970    -2.3716 Si
10 Si10     2.0728     5.4422    -2.1655 Si
11 Si11     2.9286     2.1982    -4.7117 Si
12 Si12     2.0846     5.8324    -4.4717 Si
13 Si13     3.5781     4.3178    -5.4315 Si
14 F14     1.2789    -1.2016     2.5426 F
15 F15     0.6337    -3.6538     1.2244 F
16 F16    -1.3406     1.1941     3.0427 F
17 F17    -3.5018     1.2389     1.1581 F
18 F18    -1.3903     4.8106     1.8624 F
19 F19     1.4231     4.2877     1.7762 F
20 F20     0.3743     7.5106    -0.1756 F
21 F21    -1.2512     5.8899    -1.8812 F
22 F22     0.8740    -2.0269    -2.1931 F
23 F23     3.3098    -1.6696    -0.7364 F
24 F24     0.4753     5.5702    -5.1071 F
25 F25     2.5828     7.4724    -4.8252 F
26 F26     3.5299     4.4357    -7.1769 F
27 F27     5.2070     4.6449    -4.8818 F
28 F28     3.9914     0.9724    -5.3677 F
29 F29     1.2897     1.8767    -5.2345 F
30 F30    -2.0558     2.9018    -0.4595 F
31 F31    -0.5777     0.7878    -1.0560 F
32 F32     0.7811     2.6981    -0.9837 F
33 F33     2.6505     1.1308     0.1349 F
34 F34     2.9873     6.5371    -1.1518 F
35 F35     3.7141     4.8741    -2.3797 F
36 F36     1.7861     3.4075    -2.5190 F
37 F37     4.4625     3.1578    -2.7169 F
38 H38    -2.5538    -2.1251     0.8040 H
@<TRIPOS>BOND
1 1 2 1
2 1 3 1
3 1 38 1
4 2 7 1
5 2 14 1
6 2 15 1
7 3 4 1
8 3 16 1
9 3 17 1
10 4 5 1
11 4 30 1
12 4 31 1
13 5 8 1
14 5 18 1
15 5 19 1
16 6 7 1
17 6 9 1
18 6 32 1
19 6 33 1
20 7 22 1
21 7 23 1
22 8 10 1
23 8 20 1
24 8 21 1
25 9 11 1
26 9 36 1
27 9 37 1
28 10 12 1
29 10 34 1
30 10 35 1
31 11 13 1
32 11 28 1
33 11 29 1
34 12 13 1
35 12 24 1
36 12 25 1
37 13 26 1
38 13 27 1
