@<TRIPOS>MOLECULE
S_SiI2_8_cyclic
26   26    1
SMALL
USER_CHARGES


@<TRIPOS>ATOM
      1 Si1         2.1808   -2.1208    0.8956 Si        1 ****        0.0000 
      2 I2          2.1319   -4.6472    0.9415 I         1 ****        0.0000 
      3 I3          4.4660   -1.5792    1.8307 I         1 ****        0.0000 
      4 Si4         0.6096    0.3798    2.9491 Si        1 ****        0.0000 
      5 I5          2.9048    1.2079    3.5817 I         1 ****        0.0000 
      6 I6         -0.5475    0.1383    5.1842 I         1 ****        0.0000 
      7 Si7        -0.7109    1.9098    1.6920 Si        1 ****        0.0000 
      8 Si8         0.2721    3.8893    0.8311 Si        1 ****        0.0000 
      9 I9         -1.3419    5.7565    1.4023 I         1 ****        0.0000 
     10 I10         2.4111    4.6021    1.9803 I         1 ****        0.0000 
     11 Si11        2.6716    0.6104   -2.0123 Si        1 ****        0.0000 
     12 Si12        2.0066   -1.6034   -1.4133 Si        1 ****        0.0000 
     13 S13         0.4323   -1.6079    2.0831 S.3       1 ****        0.0000 
     14 I14        -0.2892   -2.2822   -2.2170 I         1 ****        0.0000 
     15 I15         3.6100   -3.1790   -2.5778 I         1 ****        0.0000 
     16 Si16        0.4706    3.9850   -1.5448 Si        1 ****        0.0000 
     17 I17        -1.7616    4.7901   -2.4221 I         1 ****        0.0000 
     18 I18         2.1535    5.8141   -2.0206 I         1 ****        0.0000 
     19 Si19        1.0697    2.1165   -2.9114 Si        1 ****        0.0000 
     20 I20         2.1928    3.1624   -4.9269 I         1 ****        0.0000 
     21 I21        -0.9775    1.0141   -3.9105 I         1 ****        0.0000 
     22 I22         3.7563    1.7513   -0.0698 I         1 ****        0.0000 
     23 I23         4.5071    0.3673   -3.7419 I         1 ****        0.0000 
     24 I24        -1.7053    0.6421   -0.2255 I         1 ****        0.0000 
     25 I25        -2.6684    2.5984    3.1448 I         1 ****        0.0000 
     26 H26        -0.1433   -2.5414    2.8005 H         1 ****        0.0000 
@<TRIPOS>BOND
     1    1    2 1    
     2    1    3 1    
     3    1   12 1    
     4    1   13 1    
     5    4    5 1    
     6    4    6 1    
     7    4    7 1    
     8    4   13 1    
     9    7    8 1    
    10    7   24 1    
    11    7   25 1    
    12    8    9 1    
    13    8   10 1    
    14    8   16 1    
    15   11   12 1    
    16   11   19 1    
    17   11   22 1    
    18   11   23 1    
    19   12   14 1    
    20   12   15 1    
    21   13   26 1    
    22   16   17 1    
    23   16   18 1    
    24   16   19 1    
    25   19   20 1    
    26   19   21 1    
@<TRIPOS>SUBSTRUCTURE
     1 ****        1 GROUP             0       ****    0 ROOT    
