# Title
# Created by GaussView 6.0.16
#

#
#

@<TRIPOS>MOLECULE
Molecule Name
22 21
SMALL
NO_CHARGES


@<TRIPOS>ATOM
1 S1    -0.6906    -2.3415    -1.3784 S
2 C2     0.5071    -3.4710     0.0507 C
3 H3     1.4714    -4.3111    -0.6740 H
4 H4     1.2309    -2.5395     0.9278 H
5 C5    -2.3495    -1.3826    -0.3388 C
6 H6    -1.8504    -0.7226     0.8762 H
7 H7    -2.9681    -0.3825    -1.2208 H
8 C8    -0.8945    -4.8288     1.3420 C
9 H9    -1.8588    -3.9887     2.0666 H
10 H10    -1.6182    -5.7603     0.4648 H
11 C11    -3.9399    -2.9960     0.2471 C
12 H12    -3.3213    -3.9961     1.1292 H
13 H13    -4.4389    -3.6560    -0.9679 H
14 C14    -5.7206    -1.9667     1.3631 C
15 H15    -6.7196    -2.9803     1.7311 H
16 H16    -5.2215    -1.3067     2.5781 H
17 H17    -6.3391    -0.9666     0.4810 H
18 C18     0.3911    -6.0412     2.8759 C
19 H19     1.1149    -5.1097     3.7531 H
20 H20    -0.4894    -6.8942     3.6871 H
21 H21     1.3554    -6.8813     2.1513 H
22 H22     0.0555    -1.4271    -1.9470 H
@<TRIPOS>BOND
1 1 2 1
2 1 5 1
3 1 22 1
4 2 3 1
5 2 4 1
6 2 8 1
7 5 6 1
8 5 7 1
9 5 11 1
10 8 9 1
11 8 10 1
12 8 18 1
13 11 12 1
14 11 13 1
15 11 14 1
16 14 15 1
17 14 16 1
18 14 17 1
19 18 19 1
20 18 20 1
21 18 21 1
