# Molecule Name
# Created by GaussView 6.0.16
#

#
#

@<TRIPOS>MOLECULE
Molecule Name
26 26
SMALL
NO_CHARGES


@<TRIPOS>ATOM
1 S1     0.4316    -1.6081     2.0832 S
2 Si2     1.6806    -2.0535     0.3411 Si
3 Si3     0.2234     0.5160     2.5258 Si
4 Si4    -0.2943     1.6269     0.5436 Si
5 Si5     0.5673     3.7640     0.1673 Si
6 Si6     1.1728     1.3569    -1.3610 Si
7 Si7     0.8370    -0.9531    -1.5545 Si
8 Si8     0.2121     4.2844    -2.0757 Si
9 Si9     1.4329     2.6958    -3.2750 Si
10 F10     1.7155     1.1599     3.1750 F
11 F11    -1.0580     0.7311     3.6981 F
12 F12    -1.5168     2.5724     1.3647 F
13 F13    -1.6168     1.0231    -0.4306 F
14 F14    -0.2223     4.9161     1.2216 F
15 F15     2.2891     3.7835     0.4794 F
16 F16     0.8003     5.8940    -2.4304 F
17 F17    -1.4901     4.2043    -2.4739 F
18 F18     0.6691     1.3318    -4.0614 F
19 F19     3.1734     2.7056    -3.0933 F
20 F20     1.3910     2.0658     0.2240 F
21 F21     2.8641     0.9227    -1.4770 F
22 F22    -0.8690    -1.3155    -1.6983 F
23 F23     1.6765    -1.5043    -2.9877 F
24 F24     3.3325    -1.5471     0.6190 F
25 F25     1.6352    -3.7823     0.0731 F
26 H26    -0.1433    -2.5414     2.8005 H
@<TRIPOS>BOND
1 1 2 1
2 1 3 1
3 1 26 1
4 2 7 1
5 2 24 1
6 2 25 1
7 3 4 1
8 3 10 1
9 3 11 1
10 4 5 1
11 4 12 1
12 4 13 1
13 5 8 1
14 5 14 1
15 5 15 1
16 6 7 1
17 6 9 1
18 6 20 1
19 6 21 1
20 7 22 1
21 7 23 1
22 8 9 1
23 8 16 1
24 8 17 1
25 9 18 1
26 9 19 1
