# Molecule Name
# Created by GaussView 6.0.16
#

#
#

@<TRIPOS>MOLECULE
Molecule Name
29 29
SMALL
NO_CHARGES


@<TRIPOS>ATOM
1 S1     0.0436    -1.8045     2.0391 S
2 Si2     1.6941    -2.4783     0.7695 Si
3 H3     1.5034    -3.9108     0.5003 H
4 H4     2.9771    -2.2696     1.4561 H
5 Si5     0.0368     0.3525     2.3818 Si
6 H6     1.3795     0.7710     2.8094 H
7 H7    -0.9397     0.6559     3.4379 H
8 Si8    -0.6029     1.5498     0.4602 Si
9 Si9     0.3415     3.6756     0.2102 Si
10 H10    -0.3231     4.6137     1.1263 H
11 H11     1.7667     3.5622     0.5518 H
12 Si12     2.3082     0.9289    -0.8563 Si
13 Si13     1.7321    -1.3054    -1.2449 Si
14 H14     0.4022    -1.3910    -1.8653 H
15 H15     2.7344    -1.8898    -2.1475 H
16 Si16     0.1486     4.5422    -1.9656 Si
17 H17    -1.2528     4.8389    -2.2954 H
18 H18     0.9405     5.7801    -2.0037 H
19 Si19     2.9574     2.1497    -2.7385 Si
20 H20     3.9131     3.2149    -2.4027 H
21 H21     3.5755     1.2575    -3.7298 H
22 Si22     0.9663     3.0302    -3.5479 Si
23 H23     1.1482     3.7210    -4.8327 H
24 H24     0.0256     1.9145    -3.7253 H
25 H25     1.1502     1.6020    -0.2505 H
26 H26     3.4148     0.9551     0.1110 H
27 H27    -0.2410     0.7485    -0.7179 H
28 H28    -2.0650     1.7000     0.4821 H
29 H29    -0.8525    -2.6157     2.5441 H
@<TRIPOS>BOND
1 1 2 1
2 1 5 1
3 1 29 1
4 2 3 1
5 2 4 1
6 2 13 1
7 5 6 1
8 5 7 1
9 5 8 1
10 8 9 1
11 8 27 1
12 8 28 1
13 9 10 1
14 9 11 1
15 9 16 1
16 12 13 1
17 12 19 1
18 12 25 1
19 12 26 1
20 13 14 1
21 13 15 1
22 16 17 1
23 16 18 1
24 16 22 1
25 19 20 1
26 19 21 1
27 19 22 1
28 22 23 1
29 22 24 1
