# Molecule Name
# Created by GaussView 6.0.16
#

#
#

@<TRIPOS>MOLECULE
Molecule Name
26 26
SMALL
NO_CHARGES


@<TRIPOS>ATOM
1 S1     0.4316    -1.6081     2.0832 S
2 Si2     1.6806    -2.0535     0.3411 Si
3 H3     1.6425    -3.5056     0.1160 H
4 H4     3.0682    -1.6281     0.5745 H
5 Si5     0.2234     0.5160     2.5258 Si
6 H6     1.4768     1.0569     3.0711 H
7 H7    -0.8530     0.6967     3.5105 H
8 Si8    -0.2943     1.6269     0.5436 Si
9 Si9     0.5673     3.7640     0.1673 Si
10 H10    -0.0960     4.7318     1.0529 H
11 H11     2.0136     3.7804     0.4295 H
12 Si12     1.1728     1.3569    -1.3610 Si
13 Si13     0.8370    -0.9531    -1.5545 Si
14 H14    -0.5961    -1.2575    -1.6753 H
15 H15     1.5422    -1.4161    -2.7584 H
16 Si16     0.2121     4.2844    -2.0757 Si
17 H17    -1.2178     4.2171    -2.4102 H
18 H18     0.7062     5.6364    -2.3736 H
19 Si19     1.4329     2.6958    -3.2750 Si
20 H20     2.8949     2.7040    -3.1224 H
21 H21     0.7913     1.5500    -3.9356 H
22 H22     1.3561     1.9524    -0.0296 H
23 H23     2.5935     0.9922    -1.4584 H
24 H24    -1.4052     1.1197    -0.2747 H
25 H25    -1.3212     2.4211     1.2333 H
26 H26    -0.1433    -2.5414     2.8005 H
@<TRIPOS>BOND
1 1 2 1
2 1 5 1
3 1 26 1
4 2 3 1
5 2 4 1
6 2 13 1
7 5 6 1
8 5 7 1
9 5 8 1
10 8 9 1
11 8 24 1
12 8 25 1
13 9 10 1
14 9 11 1
15 9 16 1
16 12 13 1
17 12 19 1
18 12 22 1
19 12 23 1
20 13 14 1
21 13 15 1
22 16 17 1
23 16 18 1
24 16 19 1
25 19 20 1
26 19 21 1
